Program Version,EnergyPlus-Linux-OMP-32 7.2.0.006, YMD=2013.07.24 14:02,IDD_Version 7.2.0.006
   ** Warning ** IP: Note -- Some missing fields have been filled with defaults. See the audit output file for details.
   ** Warning ** No Timestep object found.  Number of TimeSteps in Hour defaulted to 4.
   ************* Beginning Zone Sizing Calculations
   ** Warning ** ProcessScheduleInput: Schedule:Day:Interval="CHILLED_WATER_TEMPERATURE_SUMMER_DESIGN_DAY", Blank Schedule Type Limits Name input -- will not be validated.
   ** Warning ** ProcessScheduleInput: Schedule:Day:Interval="CHILLED_WATER_TEMPERATURE_WINTER_DESIGN_DAY", Blank Schedule Type Limits Name input -- will not be validated.
   ** Warning ** ProcessScheduleInput: Schedule:Day:Interval="CHILLED_WATER_TEMPERATURE_DEFAULT", Blank Schedule Type Limits Name input -- will not be validated.
   ** Warning ** ProcessScheduleInput: Schedule:Year="CHILLED_WATER_TEMPERATURE", Blank Schedule Type Limits Name input -- will not be validated.
   ** Warning ** ProcessScheduleInput: Schedule:Compact="SCHEDULE:COMPACT {2B0180C6-F598-4457-AAB5-B4D006D64140}", Blank Schedule Type Limits Name input -- will not be validated.
   ** Warning ** ProcessScheduleInput: Schedule:Compact="SCHEDULE:COMPACT {17B51A73-42E3-42AF-89B3-08EF5F55D85C}", Blank Schedule Type Limits Name input -- will not be validated.
   ** Warning ** ProcessScheduleInput: Schedule:Compact="PLANT LOOP 1 ON SCHEDULE", Blank Schedule Type Limits Name input -- will not be validated.
   ** Warning ** ProcessScheduleInput: Schedule:Compact="THERMAL ZONE 5 THERMOSTAT SCHEDULE", Blank Schedule Type Limits Name input -- will not be validated.
   ** Warning ** ProcessScheduleInput: Schedule:Compact="THERMAL ZONE 8 THERMOSTAT SCHEDULE", Blank Schedule Type Limits Name input -- will not be validated.
   ** Warning ** ProcessScheduleInput: Schedule:Compact="THERMAL ZONE 9 THERMOSTAT SCHEDULE", Blank Schedule Type Limits Name input -- will not be validated.
   ** Warning ** ProcessScheduleInput: Schedule:Compact="THERMAL ZONE 10 THERMOSTAT SCHEDULE", Blank Schedule Type Limits Name input -- will not be validated.
   ** Warning ** ProcessScheduleInput: Schedule:Compact="THERMAL ZONE 7 THERMOSTAT SCHEDULE", Blank Schedule Type Limits Name input -- will not be validated.
   ** Warning ** ProcessScheduleInput: Schedule:Compact="THERMAL ZONE 1 THERMOSTAT SCHEDULE", Blank Schedule Type Limits Name input -- will not be validated.
   ** Warning ** ProcessScheduleInput: Schedule:Compact="THERMAL ZONE 2 THERMOSTAT SCHEDULE", Blank Schedule Type Limits Name input -- will not be validated.
   ** Warning ** ProcessScheduleInput: Schedule:Compact="THERMAL ZONE 4 THERMOSTAT SCHEDULE", Blank Schedule Type Limits Name input -- will not be validated.
   ** Warning ** ProcessScheduleInput: Schedule:Compact="THERMAL ZONE 3 THERMOSTAT SCHEDULE", Blank Schedule Type Limits Name input -- will not be validated.
   ** Warning ** ProcessScheduleInput: Schedule:Compact="THERMAL ZONE 6 THERMOSTAT SCHEDULE", Blank Schedule Type Limits Name input -- will not be validated.
   ** Warning ** GetSurfaces: Surfaces with interface to Ground found but no "Ground Temperatures" were input.
   **   ~~~   ** Found first in surface=SURFACE 7
   **   ~~~   ** Defaults, constant throughout the year of (18.0) will be used.
   ** Warning ** CheckUsedConstructions: There are 6 nominally unused constructions in input.
   **   ~~~   ** For explicit details on each unused construction, use Output:Diagnostics,DisplayExtraWarnings;
   ** Warning ** GetSimpleAirModelInputs: ZoneInfiltration:DesignFlowRate="THERMAL ZONE 2 ASHRAE_90.1-2004 CLIMATEZONE 1-8 MEDIUMOFFICE WHOLEBUILDING INFILTRATION", Design Flow Rate Calculation Method specifies Flow per Exterior Surface Area, but Exterior Surface Area = 0.  0 Infiltration will result.
   ************* Beginning System Sizing Calculations
   ************* Beginning Plant Sizing Calculations
   ************* Testing Individual Branch Integrity
   ************* All Branches passed integrity testing
   ************* Testing Individual Supply Air Path Integrity
   ************* All Supply Air Paths passed integrity testing
   ************* Testing Individual Return Air Path Integrity
   ************* All Return Air Paths passed integrity testing
   ************* No node connection errors were found.
   ************* Beginning Simulation
   ** Warning ** Output:Table:Monthly=BUILDING MONTHLY COOLING LOAD REPORT, Variable name=OUTDOOR DRY BULB
   **   ~~~   ** Invalid aggregation type="VALUEWHENMAXMIN"  Defaulting to SumOrAverage.
   ** Severe  ** Output:Table:Monthly Name, duplicate name=END USE ENERGY CONSUMPTION ELECTRICITY MONTHLY
   ************* Simulation Error Summary *************
   ************* There are 1 unused schedules in input.
   ************* There are 1 unused week schedules in input.
   ************* There are 3 unused day schedules in input.
   ************* Use Output:Diagnostics,DisplayUnusedSchedules; to see them.
   *************
   ************* ===== Final Error Summary =====
   ************* The following error categories occurred.  Consider correcting or noting.
   ************* Nominally Unused Constructions
   ************* ..The nominally unused constructions warning is provided to alert you to potential conditions that can cause
   ************* ..extra time during simulation. Each construction is calculated by the algorithm indicated in the HeatBalanceAlgorithm
   ************* ..object. You may remove the constructions indicated (when you use the DisplayExtraWarnings option).
   *************
   ************* EnergyPlus Warmup Error Summary. During Warmup: 0 Warning; 0 Severe Errors.
   ************* EnergyPlus Sizing Error Summary. During Sizing: 20 Warning; 0 Severe Errors.
   ************* EnergyPlus Completed Successfully-- 23 Warning; 1 Severe Errors; Elapsed Time=00hr 10min 30.31sec
