Program Version,EnergyPlus-Linux-OMP-32 7.2.0.006, YMD=2013.06.20 03:37
! This file shows details about the branches, nodes, and other
! elements of the flow connections.
! This file is intended for use in "debugging" potential problems
! that may also be detected by the program, but may be more easily
! identified by "eye".
! This file is also intended to support software which draws a
! schematic diagram of the HVAC system.
! ===============================================================
! #Nodes,<Number of Unique Nodes>
 #Nodes,200                 
! <Node>,<NodeNumber>,<Node Name>,<Node Fluid Type>,<# Times Node Referenced After Definition>
 Node,1,NODE 102,Air,4
 Node,2,NODE 57,Air,4
 Node,3,NODE 92,Air,4
 Node,4,NODE 52,Air,4
 Node,5,NODE 127,Air,4
 Node,6,NODE 167,Air,4
 Node,7,NODE 107,Air,4
 Node,8,NODE 112,Air,4
 Node,9,NODE 62,Air,4
 Node,10,NODE 147,Air,4
 Node,11,NODE 142,Air,4
 Node,12,NODE 152,Air,4
 Node,13,NODE 72,Air,4
 Node,14,NODE 157,Air,4
 Node,15,NODE 77,Air,4
 Node,16,NODE 30,Air,4
 Node,17,NODE 82,Air,4
 Node,18,NODE 87,Air,4
 Node,19,NODE 117,Air,4
 Node,20,NODE 137,Air,4
 Node,21,NODE 122,Air,4
 Node,22,NODE 67,Air,4
 Node,23,NODE 132,Air,4
 Node,24,NODE 162,Air,4
 Node,25,NODE 97,Air,4
 Node,26,NODE 26,Air,3
 Node,27,NODE 33,Air,6
 Node,28,NODE 34,Air,6
 Node,29,NODE 35,Air,8
 Node,30,NODE 27,Air,9
 Node,31,NODE 36,Water,2
 Node,32,NODE 42,Water,1
 Node,33,NODE 38,Water,1
 Node,34,NODE 43,Water,1
 Node,35,NODE 44,Water,1
 Node,36,NODE 45,Water,1
 Node,37,NODE 46,Water,1
 Node,38,NODE 37,Water,4
 Node,39,NODE 39,Water,2
 Node,40,PLANT LOOP 1 DEMAND INLET PIPE NODE,Water,1
 Node,41,NODE 41,Water,2
 Node,42,NODE 47,Water,1
 Node,43,NODE 50,Water,1
 Node,44,NODE 51,Water,1
 Node,45,NODE 55,Water,1
 Node,46,NODE 56,Water,1
 Node,47,NODE 60,Water,1
 Node,48,NODE 61,Water,1
 Node,49,NODE 65,Water,1
 Node,50,NODE 66,Water,1
 Node,51,NODE 70,Water,1
 Node,52,NODE 71,Water,1
 Node,53,NODE 75,Water,1
 Node,54,NODE 76,Water,1
 Node,55,NODE 80,Water,1
 Node,56,NODE 81,Water,1
 Node,57,NODE 85,Water,1
 Node,58,NODE 86,Water,1
 Node,59,NODE 90,Water,1
 Node,60,NODE 91,Water,1
 Node,61,NODE 95,Water,1
 Node,62,NODE 96,Water,1
 Node,63,NODE 100,Water,1
 Node,64,NODE 101,Water,1
 Node,65,NODE 105,Water,1
 Node,66,NODE 106,Water,1
 Node,67,NODE 110,Water,1
 Node,68,NODE 111,Water,1
 Node,69,NODE 115,Water,1
 Node,70,NODE 116,Water,1
 Node,71,NODE 120,Water,1
 Node,72,NODE 121,Water,1
 Node,73,NODE 125,Water,1
 Node,74,NODE 126,Water,1
 Node,75,NODE 130,Water,1
 Node,76,NODE 131,Water,1
 Node,77,NODE 135,Water,1
 Node,78,NODE 136,Water,1
 Node,79,NODE 140,Water,1
 Node,80,NODE 141,Water,1
 Node,81,NODE 145,Water,1
 Node,82,NODE 146,Water,1
 Node,83,NODE 150,Water,1
 Node,84,NODE 151,Water,1
 Node,85,NODE 155,Water,1
 Node,86,NODE 156,Water,1
 Node,87,NODE 160,Water,1
 Node,88,NODE 161,Water,1
 Node,89,NODE 165,Water,1
 Node,90,NODE 166,Water,1
 Node,91,NODE 170,Water,1
 Node,92,NODE 171,Water,1
 Node,93,PLANT LOOP 1 DEMAND BYPASS PIPE INLET NODE,Water,1
 Node,94,PLANT LOOP 1 DEMAND BYPASS PIPE OUTLET NODE,Water,1
 Node,95,PLANT LOOP 1 DEMAND OUTLET PIPE NODE,Water,1
 Node,96,NODE 40,Water,2
 Node,97,NODE 31,Air,2
 Node,98,NODE 11,Air,0
 Node,99,NODE 103,Air,1
 Node,100,NODE 7,Air,0
 Node,101,NODE 58,Air,1
 Node,102,NODE 5,Air,0
 Node,103,NODE 93,Air,1
 Node,104,NODE 14,Air,0
 Node,105,NODE 53,Air,1
 Node,106,NODE 24,Air,0
 Node,107,NODE 128,Air,1
 Node,108,NODE 22,Air,0
 Node,109,NODE 168,Air,1
 Node,110,NODE 18,Air,0
 Node,111,NODE 108,Air,1
 Node,112,NODE 4,Air,0
 Node,113,NODE 113,Air,1
 Node,114,NODE 15,Air,0
 Node,115,NODE 63,Air,1
 Node,116,NODE 10,Air,0
 Node,117,NODE 148,Air,1
 Node,118,NODE 17,Air,0
 Node,119,NODE 143,Air,1
 Node,120,NODE 25,Air,0
 Node,121,NODE 153,Air,1
 Node,122,NODE 23,Air,0
 Node,123,NODE 73,Air,1
 Node,124,NODE 12,Air,0
 Node,125,NODE 158,Air,1
 Node,126,NODE 3,Air,0
 Node,127,NODE 78,Air,1
 Node,128,NODE 20,Air,0
 Node,129,NODE 48,Air,1
 Node,130,NODE 13,Air,0
 Node,131,NODE 83,Air,1
 Node,132,NODE 8,Air,0
 Node,133,NODE 88,Air,1
 Node,134,NODE 21,Air,0
 Node,135,NODE 118,Air,1
 Node,136,NODE 19,Air,0
 Node,137,NODE 138,Air,1
 Node,138,NODE 16,Air,0
 Node,139,NODE 123,Air,1
 Node,140,NODE 6,Air,0
 Node,141,NODE 68,Air,1
 Node,142,NODE 1,Air,0
 Node,143,NODE 133,Air,1
 Node,144,NODE 2,Air,0
 Node,145,NODE 163,Air,1
 Node,146,NODE 9,Air,0
 Node,147,NODE 98,Air,1
 Node,148,NODE 28,Air,2
 Node,149,NODE 29,Air,2
 Node,150,NODE 49,Air,1
 Node,151,NODE 54,Air,1
 Node,152,NODE 59,Air,1
 Node,153,NODE 64,Air,1
 Node,154,NODE 69,Air,1
 Node,155,NODE 74,Air,1
 Node,156,NODE 79,Air,1
 Node,157,NODE 84,Air,1
 Node,158,NODE 89,Air,1
 Node,159,NODE 94,Air,1
 Node,160,NODE 99,Air,1
 Node,161,NODE 104,Air,1
 Node,162,NODE 109,Air,1
 Node,163,NODE 114,Air,1
 Node,164,NODE 119,Air,1
 Node,165,NODE 124,Air,1
 Node,166,NODE 129,Air,1
 Node,167,NODE 134,Air,1
 Node,168,NODE 139,Air,1
 Node,169,NODE 144,Air,1
 Node,170,NODE 149,Air,1
 Node,171,NODE 154,Air,1
 Node,172,NODE 159,Air,1
 Node,173,NODE 164,Air,1
 Node,174,NODE 169,Air,1
 Node,175,AIR TERMINAL SINGLE DUCT VAV REHEAT 2 DAMPER OUTLET,Air,1
 Node,176,AIR TERMINAL SINGLE DUCT VAV REHEAT 3 DAMPER OUTLET,Air,1
 Node,177,AIR TERMINAL SINGLE DUCT VAV REHEAT 4 DAMPER OUTLET,Air,1
 Node,178,AIR TERMINAL SINGLE DUCT VAV REHEAT 5 DAMPER OUTLET,Air,1
 Node,179,AIR TERMINAL SINGLE DUCT VAV REHEAT 6 DAMPER OUTLET,Air,1
 Node,180,AIR TERMINAL SINGLE DUCT VAV REHEAT 7 DAMPER OUTLET,Air,1
 Node,181,AIR TERMINAL SINGLE DUCT VAV REHEAT 8 DAMPER OUTLET,Air,1
 Node,182,AIR TERMINAL SINGLE DUCT VAV REHEAT 9 DAMPER OUTLET,Air,1
 Node,183,AIR TERMINAL SINGLE DUCT VAV REHEAT 10 DAMPER OUTLET,Air,1
 Node,184,AIR TERMINAL SINGLE DUCT VAV REHEAT 11 DAMPER OUTLET,Air,1
 Node,185,AIR TERMINAL SINGLE DUCT VAV REHEAT 12 DAMPER OUTLET,Air,1
 Node,186,AIR TERMINAL SINGLE DUCT VAV REHEAT 13 DAMPER OUTLET,Air,1
 Node,187,AIR TERMINAL SINGLE DUCT VAV REHEAT 14 DAMPER OUTLET,Air,1
 Node,188,AIR TERMINAL SINGLE DUCT VAV REHEAT 15 DAMPER OUTLET,Air,1
 Node,189,AIR TERMINAL SINGLE DUCT VAV REHEAT 16 DAMPER OUTLET,Air,1
 Node,190,AIR TERMINAL SINGLE DUCT VAV REHEAT 17 DAMPER OUTLET,Air,1
 Node,191,AIR TERMINAL SINGLE DUCT VAV REHEAT 18 DAMPER OUTLET,Air,1
 Node,192,AIR TERMINAL SINGLE DUCT VAV REHEAT 19 DAMPER OUTLET,Air,1
 Node,193,AIR TERMINAL SINGLE DUCT VAV REHEAT 20 DAMPER OUTLET,Air,1
 Node,194,AIR TERMINAL SINGLE DUCT VAV REHEAT 21 DAMPER OUTLET,Air,1
 Node,195,AIR TERMINAL SINGLE DUCT VAV REHEAT 22 DAMPER OUTLET,Air,1
 Node,196,AIR TERMINAL SINGLE DUCT VAV REHEAT 23 DAMPER OUTLET,Air,1
 Node,197,AIR TERMINAL SINGLE DUCT VAV REHEAT 24 DAMPER OUTLET,Air,1
 Node,198,AIR TERMINAL SINGLE DUCT VAV REHEAT 25 DAMPER OUTLET,Air,1
 Node,199,AIR TERMINAL SINGLE DUCT VAV REHEAT 26 DAMPER OUTLET,Air,1
 Node,200,NODE 32,Air,1
! ===============================================================
! Suspicious nodes have 0 references.  It is normal for some nodes, however.
! Listing nodes with 0 references (culled from previous list):
! <Suspicious Node>,<NodeNumber>,<Node Name>,<Node Fluid Type>,<# Times Node Referenced After Definition>
 Suspicious Node,98,NODE 11,Air,0
 Suspicious Node,100,NODE 7,Air,0
 Suspicious Node,102,NODE 5,Air,0
 Suspicious Node,104,NODE 14,Air,0
 Suspicious Node,106,NODE 24,Air,0
 Suspicious Node,108,NODE 22,Air,0
 Suspicious Node,110,NODE 18,Air,0
 Suspicious Node,112,NODE 4,Air,0
 Suspicious Node,114,NODE 15,Air,0
 Suspicious Node,116,NODE 10,Air,0
 Suspicious Node,118,NODE 17,Air,0
 Suspicious Node,120,NODE 25,Air,0
 Suspicious Node,122,NODE 23,Air,0
 Suspicious Node,124,NODE 12,Air,0
 Suspicious Node,126,NODE 3,Air,0
 Suspicious Node,128,NODE 20,Air,0
 Suspicious Node,130,NODE 13,Air,0
 Suspicious Node,132,NODE 8,Air,0
 Suspicious Node,134,NODE 21,Air,0
 Suspicious Node,136,NODE 19,Air,0
 Suspicious Node,138,NODE 16,Air,0
 Suspicious Node,140,NODE 6,Air,0
 Suspicious Node,142,NODE 1,Air,0
 Suspicious Node,144,NODE 2,Air,0
 Suspicious Node,146,NODE 9,Air,0
! ===============================================================
! <#Branch Lists>,<Number of Branch Lists>
 #Branch Lists,3
! <Branch List>,<Branch List Count>,<Branch List Name>,<Loop Name>,<Loop Type>,<Number of Branches>
! <Branch>,<Branch Count>,<Branch Name>,<Loop Name>,<Loop Type>,<Branch Inlet Node Name>,<Branch Outlet Node Name>
 Branch List,1,BRANCHLIST {298D167B-7AED-479E-8678-3B954858864A},AIR LOOP HVAC 1,Air,1
   Branch,1,BRANCH {8DB99AD4-032B-4622-96DA-824D4F268BB7},AIR LOOP HVAC 1,Air,NODE 26,NODE 27
 Branch List,2,PLANT LOOP 1 SUPPLY BRANCHES,PLANT LOOP 1,Plant Supply,4
   Branch,1,PLANT LOOP 1 SUPPLY INLET BRANCH,PLANT LOOP 1,Plant Supply,NODE 36,NODE 42
   Branch,2,PLANT LOOP 1 SUPPLY BRANCH 1,PLANT LOOP 1,Plant Supply,NODE 38,NODE 43
   Branch,3,PLANT LOOP 1 SUPPLY BRANCH 2,PLANT LOOP 1,Plant Supply,NODE 44,NODE 45
   Branch,4,PLANT LOOP 1 SUPPLY OUTLET BRANCH,PLANT LOOP 1,Plant Supply,NODE 46,NODE 37
 Branch List,3,PLANT LOOP 1 DEMAND BRANCHES,PLANT LOOP 1,Plant Demand,29
   Branch,1,PLANT LOOP 1 DEMAND INLET BRANCH,PLANT LOOP 1,Plant Demand,NODE 39,PLANT LOOP 1 DEMAND INLET PIPE NODE
   Branch,2,PLANT LOOP 1 DEMAND BRANCH 1,PLANT LOOP 1,Plant Demand,NODE 41,NODE 47
   Branch,3,PLANT LOOP 1 DEMAND BRANCH 2,PLANT LOOP 1,Plant Demand,NODE 50,NODE 51
   Branch,4,PLANT LOOP 1 DEMAND BRANCH 3,PLANT LOOP 1,Plant Demand,NODE 55,NODE 56
   Branch,5,PLANT LOOP 1 DEMAND BRANCH 4,PLANT LOOP 1,Plant Demand,NODE 60,NODE 61
   Branch,6,PLANT LOOP 1 DEMAND BRANCH 5,PLANT LOOP 1,Plant Demand,NODE 65,NODE 66
   Branch,7,PLANT LOOP 1 DEMAND BRANCH 6,PLANT LOOP 1,Plant Demand,NODE 70,NODE 71
   Branch,8,PLANT LOOP 1 DEMAND BRANCH 7,PLANT LOOP 1,Plant Demand,NODE 75,NODE 76
   Branch,9,PLANT LOOP 1 DEMAND BRANCH 8,PLANT LOOP 1,Plant Demand,NODE 80,NODE 81
   Branch,10,PLANT LOOP 1 DEMAND BRANCH 9,PLANT LOOP 1,Plant Demand,NODE 85,NODE 86
   Branch,11,PLANT LOOP 1 DEMAND BRANCH 10,PLANT LOOP 1,Plant Demand,NODE 90,NODE 91
   Branch,12,PLANT LOOP 1 DEMAND BRANCH 11,PLANT LOOP 1,Plant Demand,NODE 95,NODE 96
   Branch,13,PLANT LOOP 1 DEMAND BRANCH 12,PLANT LOOP 1,Plant Demand,NODE 100,NODE 101
   Branch,14,PLANT LOOP 1 DEMAND BRANCH 13,PLANT LOOP 1,Plant Demand,NODE 105,NODE 106
   Branch,15,PLANT LOOP 1 DEMAND BRANCH 14,PLANT LOOP 1,Plant Demand,NODE 110,NODE 111
   Branch,16,PLANT LOOP 1 DEMAND BRANCH 15,PLANT LOOP 1,Plant Demand,NODE 115,NODE 116
   Branch,17,PLANT LOOP 1 DEMAND BRANCH 16,PLANT LOOP 1,Plant Demand,NODE 120,NODE 121
   Branch,18,PLANT LOOP 1 DEMAND BRANCH 17,PLANT LOOP 1,Plant Demand,NODE 125,NODE 126
   Branch,19,PLANT LOOP 1 DEMAND BRANCH 18,PLANT LOOP 1,Plant Demand,NODE 130,NODE 131
   Branch,20,PLANT LOOP 1 DEMAND BRANCH 19,PLANT LOOP 1,Plant Demand,NODE 135,NODE 136
   Branch,21,PLANT LOOP 1 DEMAND BRANCH 20,PLANT LOOP 1,Plant Demand,NODE 140,NODE 141
   Branch,22,PLANT LOOP 1 DEMAND BRANCH 21,PLANT LOOP 1,Plant Demand,NODE 145,NODE 146
   Branch,23,PLANT LOOP 1 DEMAND BRANCH 22,PLANT LOOP 1,Plant Demand,NODE 150,NODE 151
   Branch,24,PLANT LOOP 1 DEMAND BRANCH 23,PLANT LOOP 1,Plant Demand,NODE 155,NODE 156
   Branch,25,PLANT LOOP 1 DEMAND BRANCH 24,PLANT LOOP 1,Plant Demand,NODE 160,NODE 161
   Branch,26,PLANT LOOP 1 DEMAND BRANCH 25,PLANT LOOP 1,Plant Demand,NODE 165,NODE 166
   Branch,27,PLANT LOOP 1 DEMAND BRANCH 26,PLANT LOOP 1,Plant Demand,NODE 170,NODE 171
   Branch,28,PLANT LOOP 1 DEMAND BYPASS BRANCH,PLANT LOOP 1,Plant Demand,PLANT LOOP 1 DEMAND BYPASS PIPE INLET NODE,PLANT LOOP 1 DEMAND BYPASS PIPE OUTLET NODE
   Branch,29,PLANT LOOP 1 DEMAND OUTLET BRANCH,PLANT LOOP 1,Plant Demand,PLANT LOOP 1 DEMAND OUTLET PIPE NODE,NODE 40
! ===============================================================
! <#Supply Air Paths>,<Number of Supply Air Paths>
 #Supply Air Paths,1
! <Supply Air Path>,<Supply Air Path Count>,<Supply Air Path Name>,<AirLoopHVAC Name>
! <#Components on Supply Air Path>,<Number of Components>
! <Supply Air Path Component>,<Component Count>,<Component Type>,<Component Name>,<AirLoopHVAC Name>
! <#Outlet Nodes on Supply Air Path Component>,<Number of Nodes>
! <Supply Air Path Component Nodes>,<Node Count>,<Component Type>,<Component Name>,<Inlet Node Name>,<Outlet Node Name>,<AirLoopHVAC Name>
 Supply Air Path,1,AIRLOOPHVAC:SUPPLYPATH {6385DC5D-012A-428B-BB57-5167F42B3567},AIR LOOP HVAC 1
   #Components on Supply Air Path,1
   Supply Air Path Component,1,AIRLOOPHVAC:ZONESPLITTER,AIR LOOP HVAC ZONE SPLITTER 1,AIR LOOP HVAC 1
     #Outlet Nodes on Supply Air Path Component,25
     Supply Air Path Component Nodes,1,AIRLOOPHVAC:ZONESPLITTER,AIR LOOP HVAC ZONE SPLITTER 1,NODE 28,NODE 49,AIR LOOP HVAC 1
     Supply Air Path Component Nodes,2,AIRLOOPHVAC:ZONESPLITTER,AIR LOOP HVAC ZONE SPLITTER 1,NODE 28,NODE 54,AIR LOOP HVAC 1
     Supply Air Path Component Nodes,3,AIRLOOPHVAC:ZONESPLITTER,AIR LOOP HVAC ZONE SPLITTER 1,NODE 28,NODE 59,AIR LOOP HVAC 1
     Supply Air Path Component Nodes,4,AIRLOOPHVAC:ZONESPLITTER,AIR LOOP HVAC ZONE SPLITTER 1,NODE 28,NODE 64,AIR LOOP HVAC 1
     Supply Air Path Component Nodes,5,AIRLOOPHVAC:ZONESPLITTER,AIR LOOP HVAC ZONE SPLITTER 1,NODE 28,NODE 69,AIR LOOP HVAC 1
     Supply Air Path Component Nodes,6,AIRLOOPHVAC:ZONESPLITTER,AIR LOOP HVAC ZONE SPLITTER 1,NODE 28,NODE 74,AIR LOOP HVAC 1
     Supply Air Path Component Nodes,7,AIRLOOPHVAC:ZONESPLITTER,AIR LOOP HVAC ZONE SPLITTER 1,NODE 28,NODE 79,AIR LOOP HVAC 1
     Supply Air Path Component Nodes,8,AIRLOOPHVAC:ZONESPLITTER,AIR LOOP HVAC ZONE SPLITTER 1,NODE 28,NODE 84,AIR LOOP HVAC 1
     Supply Air Path Component Nodes,9,AIRLOOPHVAC:ZONESPLITTER,AIR LOOP HVAC ZONE SPLITTER 1,NODE 28,NODE 89,AIR LOOP HVAC 1
     Supply Air Path Component Nodes,10,AIRLOOPHVAC:ZONESPLITTER,AIR LOOP HVAC ZONE SPLITTER 1,NODE 28,NODE 94,AIR LOOP HVAC 1
     Supply Air Path Component Nodes,11,AIRLOOPHVAC:ZONESPLITTER,AIR LOOP HVAC ZONE SPLITTER 1,NODE 28,NODE 99,AIR LOOP HVAC 1
     Supply Air Path Component Nodes,12,AIRLOOPHVAC:ZONESPLITTER,AIR LOOP HVAC ZONE SPLITTER 1,NODE 28,NODE 104,AIR LOOP HVAC 1
     Supply Air Path Component Nodes,13,AIRLOOPHVAC:ZONESPLITTER,AIR LOOP HVAC ZONE SPLITTER 1,NODE 28,NODE 109,AIR LOOP HVAC 1
     Supply Air Path Component Nodes,14,AIRLOOPHVAC:ZONESPLITTER,AIR LOOP HVAC ZONE SPLITTER 1,NODE 28,NODE 114,AIR LOOP HVAC 1
     Supply Air Path Component Nodes,15,AIRLOOPHVAC:ZONESPLITTER,AIR LOOP HVAC ZONE SPLITTER 1,NODE 28,NODE 119,AIR LOOP HVAC 1
     Supply Air Path Component Nodes,16,AIRLOOPHVAC:ZONESPLITTER,AIR LOOP HVAC ZONE SPLITTER 1,NODE 28,NODE 124,AIR LOOP HVAC 1
     Supply Air Path Component Nodes,17,AIRLOOPHVAC:ZONESPLITTER,AIR LOOP HVAC ZONE SPLITTER 1,NODE 28,NODE 129,AIR LOOP HVAC 1
     Supply Air Path Component Nodes,18,AIRLOOPHVAC:ZONESPLITTER,AIR LOOP HVAC ZONE SPLITTER 1,NODE 28,NODE 134,AIR LOOP HVAC 1
     Supply Air Path Component Nodes,19,AIRLOOPHVAC:ZONESPLITTER,AIR LOOP HVAC ZONE SPLITTER 1,NODE 28,NODE 139,AIR LOOP HVAC 1
     Supply Air Path Component Nodes,20,AIRLOOPHVAC:ZONESPLITTER,AIR LOOP HVAC ZONE SPLITTER 1,NODE 28,NODE 144,AIR LOOP HVAC 1
     Supply Air Path Component Nodes,21,AIRLOOPHVAC:ZONESPLITTER,AIR LOOP HVAC ZONE SPLITTER 1,NODE 28,NODE 149,AIR LOOP HVAC 1
     Supply Air Path Component Nodes,22,AIRLOOPHVAC:ZONESPLITTER,AIR LOOP HVAC ZONE SPLITTER 1,NODE 28,NODE 154,AIR LOOP HVAC 1
     Supply Air Path Component Nodes,23,AIRLOOPHVAC:ZONESPLITTER,AIR LOOP HVAC ZONE SPLITTER 1,NODE 28,NODE 159,AIR LOOP HVAC 1
     Supply Air Path Component Nodes,24,AIRLOOPHVAC:ZONESPLITTER,AIR LOOP HVAC ZONE SPLITTER 1,NODE 28,NODE 164,AIR LOOP HVAC 1
     Supply Air Path Component Nodes,25,AIRLOOPHVAC:ZONESPLITTER,AIR LOOP HVAC ZONE SPLITTER 1,NODE 28,NODE 169,AIR LOOP HVAC 1
! <#Nodes on Supply Air Path>,<Number of Nodes>
! <Supply Air Path Node>,<Node Type>,<Node Count>,<Node Name>,<AirLoopHVAC Name>
#Nodes on Supply Air Path,26
   Supply Air Path Node,Inlet Node,1,NODE 28,AIR LOOP HVAC 1
   Supply Air Path Node,Outlet Node,2,NODE 49,AIR LOOP HVAC 1
   Supply Air Path Node,Outlet Node,3,NODE 54,AIR LOOP HVAC 1
   Supply Air Path Node,Outlet Node,4,NODE 59,AIR LOOP HVAC 1
   Supply Air Path Node,Outlet Node,5,NODE 64,AIR LOOP HVAC 1
   Supply Air Path Node,Outlet Node,6,NODE 69,AIR LOOP HVAC 1
   Supply Air Path Node,Outlet Node,7,NODE 74,AIR LOOP HVAC 1
   Supply Air Path Node,Outlet Node,8,NODE 79,AIR LOOP HVAC 1
   Supply Air Path Node,Outlet Node,9,NODE 84,AIR LOOP HVAC 1
   Supply Air Path Node,Outlet Node,10,NODE 89,AIR LOOP HVAC 1
   Supply Air Path Node,Outlet Node,11,NODE 94,AIR LOOP HVAC 1
   Supply Air Path Node,Outlet Node,12,NODE 99,AIR LOOP HVAC 1
   Supply Air Path Node,Outlet Node,13,NODE 104,AIR LOOP HVAC 1
   Supply Air Path Node,Outlet Node,14,NODE 109,AIR LOOP HVAC 1
   Supply Air Path Node,Outlet Node,15,NODE 114,AIR LOOP HVAC 1
   Supply Air Path Node,Outlet Node,16,NODE 119,AIR LOOP HVAC 1
   Supply Air Path Node,Outlet Node,17,NODE 124,AIR LOOP HVAC 1
   Supply Air Path Node,Outlet Node,18,NODE 129,AIR LOOP HVAC 1
   Supply Air Path Node,Outlet Node,19,NODE 134,AIR LOOP HVAC 1
   Supply Air Path Node,Outlet Node,20,NODE 139,AIR LOOP HVAC 1
   Supply Air Path Node,Outlet Node,21,NODE 144,AIR LOOP HVAC 1
   Supply Air Path Node,Outlet Node,22,NODE 149,AIR LOOP HVAC 1
   Supply Air Path Node,Outlet Node,23,NODE 154,AIR LOOP HVAC 1
   Supply Air Path Node,Outlet Node,24,NODE 159,AIR LOOP HVAC 1
   Supply Air Path Node,Outlet Node,25,NODE 164,AIR LOOP HVAC 1
   Supply Air Path Node,Outlet Node,26,NODE 169,AIR LOOP HVAC 1
! ===============================================================
! <#Return Air Paths>,<Number of Return Air Paths>
 #Return Air Paths,1
! <Return Air Path>,<Return Air Path Count>,<Return Air Path Name>,<AirLoopHVAC Name>
! <#Components on Return Air Path>,<Number of Components>
! <Return Air Path Component>,<Component Count>,<Component Type>,<Component Name>,<AirLoopHVAC Name>
! <#Inlet Nodes on Return Air Path Component>,<Number of Nodes>
! <Return Air Path Component Nodes>,<Node Count>,<Component Type>,<Component Name>,<Inlet Node Name>,<Outlet Node Name>,<AirLoopHVAC Name>
 Return Air Path,1,AIRLOOPHVAC:RETURNPATH {3AD6CF0B-573C-4DE9-AC17-72C53B4AC563},AIR LOOP HVAC 1
   #Components on Return Air Path,1
   Return Air Path Component,1,AIRLOOPHVAC:ZONEMIXER,AIR LOOP HVAC ZONE MIXER 1,AIR LOOP HVAC 1
     #Inlet Nodes on Return Air Path Component,25
     Return Air Path Component Nodes,1,AIRLOOPHVAC:ZONEMIXER,AIR LOOP HVAC ZONE MIXER 1,NODE 48,NODE 29,AIR LOOP HVAC 1
     Return Air Path Component Nodes,2,AIRLOOPHVAC:ZONEMIXER,AIR LOOP HVAC ZONE MIXER 1,NODE 53,NODE 29,AIR LOOP HVAC 1
     Return Air Path Component Nodes,3,AIRLOOPHVAC:ZONEMIXER,AIR LOOP HVAC ZONE MIXER 1,NODE 58,NODE 29,AIR LOOP HVAC 1
     Return Air Path Component Nodes,4,AIRLOOPHVAC:ZONEMIXER,AIR LOOP HVAC ZONE MIXER 1,NODE 63,NODE 29,AIR LOOP HVAC 1
     Return Air Path Component Nodes,5,AIRLOOPHVAC:ZONEMIXER,AIR LOOP HVAC ZONE MIXER 1,NODE 68,NODE 29,AIR LOOP HVAC 1
     Return Air Path Component Nodes,6,AIRLOOPHVAC:ZONEMIXER,AIR LOOP HVAC ZONE MIXER 1,NODE 73,NODE 29,AIR LOOP HVAC 1
     Return Air Path Component Nodes,7,AIRLOOPHVAC:ZONEMIXER,AIR LOOP HVAC ZONE MIXER 1,NODE 78,NODE 29,AIR LOOP HVAC 1
     Return Air Path Component Nodes,8,AIRLOOPHVAC:ZONEMIXER,AIR LOOP HVAC ZONE MIXER 1,NODE 83,NODE 29,AIR LOOP HVAC 1
     Return Air Path Component Nodes,9,AIRLOOPHVAC:ZONEMIXER,AIR LOOP HVAC ZONE MIXER 1,NODE 88,NODE 29,AIR LOOP HVAC 1
     Return Air Path Component Nodes,10,AIRLOOPHVAC:ZONEMIXER,AIR LOOP HVAC ZONE MIXER 1,NODE 93,NODE 29,AIR LOOP HVAC 1
     Return Air Path Component Nodes,11,AIRLOOPHVAC:ZONEMIXER,AIR LOOP HVAC ZONE MIXER 1,NODE 98,NODE 29,AIR LOOP HVAC 1
     Return Air Path Component Nodes,12,AIRLOOPHVAC:ZONEMIXER,AIR LOOP HVAC ZONE MIXER 1,NODE 103,NODE 29,AIR LOOP HVAC 1
     Return Air Path Component Nodes,13,AIRLOOPHVAC:ZONEMIXER,AIR LOOP HVAC ZONE MIXER 1,NODE 108,NODE 29,AIR LOOP HVAC 1
     Return Air Path Component Nodes,14,AIRLOOPHVAC:ZONEMIXER,AIR LOOP HVAC ZONE MIXER 1,NODE 113,NODE 29,AIR LOOP HVAC 1
     Return Air Path Component Nodes,15,AIRLOOPHVAC:ZONEMIXER,AIR LOOP HVAC ZONE MIXER 1,NODE 118,NODE 29,AIR LOOP HVAC 1
     Return Air Path Component Nodes,16,AIRLOOPHVAC:ZONEMIXER,AIR LOOP HVAC ZONE MIXER 1,NODE 123,NODE 29,AIR LOOP HVAC 1
     Return Air Path Component Nodes,17,AIRLOOPHVAC:ZONEMIXER,AIR LOOP HVAC ZONE MIXER 1,NODE 128,NODE 29,AIR LOOP HVAC 1
     Return Air Path Component Nodes,18,AIRLOOPHVAC:ZONEMIXER,AIR LOOP HVAC ZONE MIXER 1,NODE 133,NODE 29,AIR LOOP HVAC 1
     Return Air Path Component Nodes,19,AIRLOOPHVAC:ZONEMIXER,AIR LOOP HVAC ZONE MIXER 1,NODE 138,NODE 29,AIR LOOP HVAC 1
     Return Air Path Component Nodes,20,AIRLOOPHVAC:ZONEMIXER,AIR LOOP HVAC ZONE MIXER 1,NODE 143,NODE 29,AIR LOOP HVAC 1
     Return Air Path Component Nodes,21,AIRLOOPHVAC:ZONEMIXER,AIR LOOP HVAC ZONE MIXER 1,NODE 148,NODE 29,AIR LOOP HVAC 1
     Return Air Path Component Nodes,22,AIRLOOPHVAC:ZONEMIXER,AIR LOOP HVAC ZONE MIXER 1,NODE 153,NODE 29,AIR LOOP HVAC 1
     Return Air Path Component Nodes,23,AIRLOOPHVAC:ZONEMIXER,AIR LOOP HVAC ZONE MIXER 1,NODE 158,NODE 29,AIR LOOP HVAC 1
     Return Air Path Component Nodes,24,AIRLOOPHVAC:ZONEMIXER,AIR LOOP HVAC ZONE MIXER 1,NODE 163,NODE 29,AIR LOOP HVAC 1
     Return Air Path Component Nodes,25,AIRLOOPHVAC:ZONEMIXER,AIR LOOP HVAC ZONE MIXER 1,NODE 168,NODE 29,AIR LOOP HVAC 1
! <#Nodes on Return Air Path>,<Number of Nodes>
! <Return Air Path Node>,<Node Type>,<Node Count>,<Node Name>,<AirLoopHVAC Name>
   #Nodes on Return Air Path,26
   Return Air Path Node,Outlet Node,1,NODE 29,AIR LOOP HVAC 1
   Return Air Path Node,Inlet Node,2,NODE 48,AIR LOOP HVAC 1
   Return Air Path Node,Inlet Node,3,NODE 53,AIR LOOP HVAC 1
   Return Air Path Node,Inlet Node,4,NODE 58,AIR LOOP HVAC 1
   Return Air Path Node,Inlet Node,5,NODE 63,AIR LOOP HVAC 1
   Return Air Path Node,Inlet Node,6,NODE 68,AIR LOOP HVAC 1
   Return Air Path Node,Inlet Node,7,NODE 73,AIR LOOP HVAC 1
   Return Air Path Node,Inlet Node,8,NODE 78,AIR LOOP HVAC 1
   Return Air Path Node,Inlet Node,9,NODE 83,AIR LOOP HVAC 1
   Return Air Path Node,Inlet Node,10,NODE 88,AIR LOOP HVAC 1
   Return Air Path Node,Inlet Node,11,NODE 93,AIR LOOP HVAC 1
   Return Air Path Node,Inlet Node,12,NODE 98,AIR LOOP HVAC 1
   Return Air Path Node,Inlet Node,13,NODE 103,AIR LOOP HVAC 1
   Return Air Path Node,Inlet Node,14,NODE 108,AIR LOOP HVAC 1
   Return Air Path Node,Inlet Node,15,NODE 113,AIR LOOP HVAC 1
   Return Air Path Node,Inlet Node,16,NODE 118,AIR LOOP HVAC 1
   Return Air Path Node,Inlet Node,17,NODE 123,AIR LOOP HVAC 1
   Return Air Path Node,Inlet Node,18,NODE 128,AIR LOOP HVAC 1
   Return Air Path Node,Inlet Node,19,NODE 133,AIR LOOP HVAC 1
   Return Air Path Node,Inlet Node,20,NODE 138,AIR LOOP HVAC 1
   Return Air Path Node,Inlet Node,21,NODE 143,AIR LOOP HVAC 1
   Return Air Path Node,Inlet Node,22,NODE 148,AIR LOOP HVAC 1
   Return Air Path Node,Inlet Node,23,NODE 153,AIR LOOP HVAC 1
   Return Air Path Node,Inlet Node,24,NODE 158,AIR LOOP HVAC 1
   Return Air Path Node,Inlet Node,25,NODE 163,AIR LOOP HVAC 1
   Return Air Path Node,Inlet Node,26,NODE 168,AIR LOOP HVAC 1
! ===============================================================
! #Outdoor Air Nodes,<Number of Outdoor Air Nodes>
 #Outdoor Air Nodes,1                   
! <Outdoor Air Node>,<NodeNumber>,<Node Name>
 Outdoor Air Node,97,NODE 31
! ===============================================================
! <#Component Sets>,<Number of Component Sets>
 #Component Sets,89
! <Component Set>,<Component Set Count>,<Parent Object Type>,<Parent Object Name>,<Component Type>,<Component Name>,<Inlet Node ID>,<Outlet Node ID>,<Description>
 Component Set,1,BRANCH,BRANCH {8DB99AD4-032B-4622-96DA-824D4F268BB7},AIRLOOPHVAC:OUTDOORAIRSYSTEM,AIR LOOP HVAC OUTDOOR AIR SYSTEM 1,NODE 26,NODE 33,Air Nodes
 Component Set,2,BRANCH,BRANCH {8DB99AD4-032B-4622-96DA-824D4F268BB7},COILSYSTEM:COOLING:DX,COIL COOLING DX TWO SPEED 1 COILSYSTEM,NODE 33,NODE 34,Air Nodes
 Component Set,3,BRANCH,BRANCH {8DB99AD4-032B-4622-96DA-824D4F268BB7},COIL:HEATING:WATER,COIL HEATING WATER 1,NODE 34,NODE 35,Air Nodes
 Component Set,4,BRANCH,BRANCH {8DB99AD4-032B-4622-96DA-824D4F268BB7},FAN:VARIABLEVOLUME,FAN VARIABLE VOLUME 1,NODE 35,NODE 27,Air Nodes
 Component Set,5,BRANCH,PLANT LOOP 1 SUPPLY INLET BRANCH,PUMP:VARIABLESPEED,PUMP VARIABLE SPEED 1,NODE 36,NODE 42,Water Nodes
 Component Set,6,BRANCH,PLANT LOOP 1 SUPPLY BRANCH 1,BOILER:HOTWATER,BOILER HOT WATER 1,NODE 38,NODE 43,Hot Water Nodes
 Component Set,7,BRANCH,PLANT LOOP 1 SUPPLY BRANCH 2,PIPE:ADIABATIC,PIPE ADIABATIC 1,NODE 44,NODE 45,Pipe Nodes
 Component Set,8,BRANCH,PLANT LOOP 1 SUPPLY OUTLET BRANCH,PIPE:ADIABATIC,PIPE ADIABATIC 2,NODE 46,NODE 37,Pipe Nodes
 Component Set,9,BRANCH,PLANT LOOP 1 DEMAND INLET BRANCH,PIPE:ADIABATIC,PLANT LOOP 1 DEMAND INLET PIPE,NODE 39,PLANT LOOP 1 DEMAND INLET PIPE NODE,Pipe Nodes
 Component Set,10,BRANCH,PLANT LOOP 1 DEMAND BRANCH 1,COIL:HEATING:WATER,COIL HEATING WATER 1,NODE 41,NODE 47,Water Nodes
 Component Set,11,BRANCH,PLANT LOOP 1 DEMAND BRANCH 2,COIL:HEATING:WATER,COIL HEATING WATER 3,NODE 50,NODE 51,Water Nodes
 Component Set,12,BRANCH,PLANT LOOP 1 DEMAND BRANCH 3,COIL:HEATING:WATER,COIL HEATING WATER 4,NODE 55,NODE 56,Water Nodes
 Component Set,13,BRANCH,PLANT LOOP 1 DEMAND BRANCH 4,COIL:HEATING:WATER,COIL HEATING WATER 5,NODE 60,NODE 61,Water Nodes
 Component Set,14,BRANCH,PLANT LOOP 1 DEMAND BRANCH 5,COIL:HEATING:WATER,COIL HEATING WATER 6,NODE 65,NODE 66,Water Nodes
 Component Set,15,BRANCH,PLANT LOOP 1 DEMAND BRANCH 6,COIL:HEATING:WATER,COIL HEATING WATER 7,NODE 70,NODE 71,Water Nodes
 Component Set,16,BRANCH,PLANT LOOP 1 DEMAND BRANCH 7,COIL:HEATING:WATER,COIL HEATING WATER 8,NODE 75,NODE 76,Water Nodes
 Component Set,17,BRANCH,PLANT LOOP 1 DEMAND BRANCH 8,COIL:HEATING:WATER,COIL HEATING WATER 9,NODE 80,NODE 81,Water Nodes
 Component Set,18,BRANCH,PLANT LOOP 1 DEMAND BRANCH 9,COIL:HEATING:WATER,COIL HEATING WATER 10,NODE 85,NODE 86,Water Nodes
 Component Set,19,BRANCH,PLANT LOOP 1 DEMAND BRANCH 10,COIL:HEATING:WATER,COIL HEATING WATER 11,NODE 90,NODE 91,Water Nodes
 Component Set,20,BRANCH,PLANT LOOP 1 DEMAND BRANCH 11,COIL:HEATING:WATER,COIL HEATING WATER 12,NODE 95,NODE 96,Water Nodes
 Component Set,21,BRANCH,PLANT LOOP 1 DEMAND BRANCH 12,COIL:HEATING:WATER,COIL HEATING WATER 13,NODE 100,NODE 101,Water Nodes
 Component Set,22,BRANCH,PLANT LOOP 1 DEMAND BRANCH 13,COIL:HEATING:WATER,COIL HEATING WATER 14,NODE 105,NODE 106,Water Nodes
 Component Set,23,BRANCH,PLANT LOOP 1 DEMAND BRANCH 14,COIL:HEATING:WATER,COIL HEATING WATER 15,NODE 110,NODE 111,Water Nodes
 Component Set,24,BRANCH,PLANT LOOP 1 DEMAND BRANCH 15,COIL:HEATING:WATER,COIL HEATING WATER 16,NODE 115,NODE 116,Water Nodes
 Component Set,25,BRANCH,PLANT LOOP 1 DEMAND BRANCH 16,COIL:HEATING:WATER,COIL HEATING WATER 17,NODE 120,NODE 121,Water Nodes
 Component Set,26,BRANCH,PLANT LOOP 1 DEMAND BRANCH 17,COIL:HEATING:WATER,COIL HEATING WATER 18,NODE 125,NODE 126,Water Nodes
 Component Set,27,BRANCH,PLANT LOOP 1 DEMAND BRANCH 18,COIL:HEATING:WATER,COIL HEATING WATER 19,NODE 130,NODE 131,Water Nodes
 Component Set,28,BRANCH,PLANT LOOP 1 DEMAND BRANCH 19,COIL:HEATING:WATER,COIL HEATING WATER 20,NODE 135,NODE 136,Water Nodes
 Component Set,29,BRANCH,PLANT LOOP 1 DEMAND BRANCH 20,COIL:HEATING:WATER,COIL HEATING WATER 21,NODE 140,NODE 141,Water Nodes
 Component Set,30,BRANCH,PLANT LOOP 1 DEMAND BRANCH 21,COIL:HEATING:WATER,COIL HEATING WATER 22,NODE 145,NODE 146,Water Nodes
 Component Set,31,BRANCH,PLANT LOOP 1 DEMAND BRANCH 22,COIL:HEATING:WATER,COIL HEATING WATER 23,NODE 150,NODE 151,Water Nodes
 Component Set,32,BRANCH,PLANT LOOP 1 DEMAND BRANCH 23,COIL:HEATING:WATER,COIL HEATING WATER 24,NODE 155,NODE 156,Water Nodes
 Component Set,33,BRANCH,PLANT LOOP 1 DEMAND BRANCH 24,COIL:HEATING:WATER,COIL HEATING WATER 25,NODE 160,NODE 161,Water Nodes
 Component Set,34,BRANCH,PLANT LOOP 1 DEMAND BRANCH 25,COIL:HEATING:WATER,COIL HEATING WATER 26,NODE 165,NODE 166,Water Nodes
 Component Set,35,BRANCH,PLANT LOOP 1 DEMAND BRANCH 26,COIL:HEATING:WATER,COIL HEATING WATER 27,NODE 170,NODE 171,Water Nodes
 Component Set,36,BRANCH,PLANT LOOP 1 DEMAND BYPASS BRANCH,PIPE:ADIABATIC,PLANT LOOP 1 DEMAND BYPASS PIPE,PLANT LOOP 1 DEMAND BYPASS PIPE INLET NODE,PLANT LOOP 1 DEMAND BYPASS PIPE OUTLET NODE,Pipe Nodes
 Component Set,37,BRANCH,PLANT LOOP 1 DEMAND OUTLET BRANCH,PIPE:ADIABATIC,PLANT LOOP 1 DEMAND OUTLET PIPE,PLANT LOOP 1 DEMAND OUTLET PIPE NODE,NODE 40,Pipe Nodes
 Component Set,38,ZONEHVAC:AIRDISTRIBUTIONUNIT,ZONEHVAC:AIRDISTRIBUTIONUNIT {B89F2D7F-1E8C-470D-9CF7-31002BAAE9F1},AIRTERMINAL:SINGLEDUCT:VAV:REHEAT,AIR TERMINAL SINGLE DUCT VAV REHEAT 2,NODE 49,NODE 30,Air Nodes
 Component Set,39,ZONEHVAC:AIRDISTRIBUTIONUNIT,ZONEHVAC:AIRDISTRIBUTIONUNIT {24A2FA5A-86B6-4246-B787-1C6AD584FAD6},AIRTERMINAL:SINGLEDUCT:VAV:REHEAT,AIR TERMINAL SINGLE DUCT VAV REHEAT 3,NODE 54,NODE 52,Air Nodes
 Component Set,40,ZONEHVAC:AIRDISTRIBUTIONUNIT,ZONEHVAC:AIRDISTRIBUTIONUNIT {0EAF8232-9393-432D-AAF7-62A084F07DDD},AIRTERMINAL:SINGLEDUCT:VAV:REHEAT,AIR TERMINAL SINGLE DUCT VAV REHEAT 4,NODE 59,NODE 57,Air Nodes
 Component Set,41,ZONEHVAC:AIRDISTRIBUTIONUNIT,ZONEHVAC:AIRDISTRIBUTIONUNIT {84D4137A-5D5E-403A-ACA1-AA736FD9D296},AIRTERMINAL:SINGLEDUCT:VAV:REHEAT,AIR TERMINAL SINGLE DUCT VAV REHEAT 5,NODE 64,NODE 62,Air Nodes
 Component Set,42,ZONEHVAC:AIRDISTRIBUTIONUNIT,ZONEHVAC:AIRDISTRIBUTIONUNIT {18D76CF2-0208-4C57-A43D-1DD6EB0AE2B3},AIRTERMINAL:SINGLEDUCT:VAV:REHEAT,AIR TERMINAL SINGLE DUCT VAV REHEAT 6,NODE 69,NODE 67,Air Nodes
 Component Set,43,ZONEHVAC:AIRDISTRIBUTIONUNIT,ZONEHVAC:AIRDISTRIBUTIONUNIT {8F07469E-F4BD-4AE4-9FC5-AB81C99FCF60},AIRTERMINAL:SINGLEDUCT:VAV:REHEAT,AIR TERMINAL SINGLE DUCT VAV REHEAT 7,NODE 74,NODE 72,Air Nodes
 Component Set,44,ZONEHVAC:AIRDISTRIBUTIONUNIT,ZONEHVAC:AIRDISTRIBUTIONUNIT {B5A2144C-646C-4726-80CB-6DF011E65A28},AIRTERMINAL:SINGLEDUCT:VAV:REHEAT,AIR TERMINAL SINGLE DUCT VAV REHEAT 8,NODE 79,NODE 77,Air Nodes
 Component Set,45,ZONEHVAC:AIRDISTRIBUTIONUNIT,ZONEHVAC:AIRDISTRIBUTIONUNIT {DDF2C7F4-C32C-4196-A162-88D0BC0AA6E5},AIRTERMINAL:SINGLEDUCT:VAV:REHEAT,AIR TERMINAL SINGLE DUCT VAV REHEAT 9,NODE 84,NODE 82,Air Nodes
 Component Set,46,ZONEHVAC:AIRDISTRIBUTIONUNIT,ZONEHVAC:AIRDISTRIBUTIONUNIT {F53FAAE1-F54D-4759-9C03-D8062F5D845D},AIRTERMINAL:SINGLEDUCT:VAV:REHEAT,AIR TERMINAL SINGLE DUCT VAV REHEAT 10,NODE 89,NODE 87,Air Nodes
 Component Set,47,ZONEHVAC:AIRDISTRIBUTIONUNIT,ZONEHVAC:AIRDISTRIBUTIONUNIT {9F7DE79C-E088-4DF7-9CD0-887E3F2C57B7},AIRTERMINAL:SINGLEDUCT:VAV:REHEAT,AIR TERMINAL SINGLE DUCT VAV REHEAT 11,NODE 94,NODE 92,Air Nodes
 Component Set,48,ZONEHVAC:AIRDISTRIBUTIONUNIT,ZONEHVAC:AIRDISTRIBUTIONUNIT {1F694D0E-7AF0-4A6E-BC2B-A05497C37AB4},AIRTERMINAL:SINGLEDUCT:VAV:REHEAT,AIR TERMINAL SINGLE DUCT VAV REHEAT 12,NODE 99,NODE 97,Air Nodes
 Component Set,49,ZONEHVAC:AIRDISTRIBUTIONUNIT,ZONEHVAC:AIRDISTRIBUTIONUNIT {C05E0255-6D5F-4EFB-8A9E-D2BF94417094},AIRTERMINAL:SINGLEDUCT:VAV:REHEAT,AIR TERMINAL SINGLE DUCT VAV REHEAT 13,NODE 104,NODE 102,Air Nodes
 Component Set,50,ZONEHVAC:AIRDISTRIBUTIONUNIT,ZONEHVAC:AIRDISTRIBUTIONUNIT {EDC382F1-8498-4354-97C6-7383C09C9001},AIRTERMINAL:SINGLEDUCT:VAV:REHEAT,AIR TERMINAL SINGLE DUCT VAV REHEAT 14,NODE 109,NODE 107,Air Nodes
 Component Set,51,ZONEHVAC:AIRDISTRIBUTIONUNIT,ZONEHVAC:AIRDISTRIBUTIONUNIT {DC3D8000-FF66-43A9-986E-5C4CD2BE554F},AIRTERMINAL:SINGLEDUCT:VAV:REHEAT,AIR TERMINAL SINGLE DUCT VAV REHEAT 15,NODE 114,NODE 112,Air Nodes
 Component Set,52,ZONEHVAC:AIRDISTRIBUTIONUNIT,ZONEHVAC:AIRDISTRIBUTIONUNIT {DAEB3336-4F64-4B1F-9C72-BE5AA7CE6517},AIRTERMINAL:SINGLEDUCT:VAV:REHEAT,AIR TERMINAL SINGLE DUCT VAV REHEAT 16,NODE 119,NODE 117,Air Nodes
 Component Set,53,ZONEHVAC:AIRDISTRIBUTIONUNIT,ZONEHVAC:AIRDISTRIBUTIONUNIT {C7FA9B46-4749-43C5-8C52-AEC9BAABC1FF},AIRTERMINAL:SINGLEDUCT:VAV:REHEAT,AIR TERMINAL SINGLE DUCT VAV REHEAT 17,NODE 124,NODE 122,Air Nodes
 Component Set,54,ZONEHVAC:AIRDISTRIBUTIONUNIT,ZONEHVAC:AIRDISTRIBUTIONUNIT {2EAA0516-F4F7-4F98-8FBD-08D54A218901},AIRTERMINAL:SINGLEDUCT:VAV:REHEAT,AIR TERMINAL SINGLE DUCT VAV REHEAT 18,NODE 129,NODE 127,Air Nodes
 Component Set,55,ZONEHVAC:AIRDISTRIBUTIONUNIT,ZONEHVAC:AIRDISTRIBUTIONUNIT {D9DFEE51-62AC-499E-A692-7656A2A83678},AIRTERMINAL:SINGLEDUCT:VAV:REHEAT,AIR TERMINAL SINGLE DUCT VAV REHEAT 19,NODE 134,NODE 132,Air Nodes
 Component Set,56,ZONEHVAC:AIRDISTRIBUTIONUNIT,ZONEHVAC:AIRDISTRIBUTIONUNIT {DFF934B9-F764-4196-82CA-E3261B4887B3},AIRTERMINAL:SINGLEDUCT:VAV:REHEAT,AIR TERMINAL SINGLE DUCT VAV REHEAT 20,NODE 139,NODE 137,Air Nodes
 Component Set,57,ZONEHVAC:AIRDISTRIBUTIONUNIT,ZONEHVAC:AIRDISTRIBUTIONUNIT {B664627C-5991-4E4E-B164-EC48B3D3DE7D},AIRTERMINAL:SINGLEDUCT:VAV:REHEAT,AIR TERMINAL SINGLE DUCT VAV REHEAT 21,NODE 144,NODE 142,Air Nodes
 Component Set,58,ZONEHVAC:AIRDISTRIBUTIONUNIT,ZONEHVAC:AIRDISTRIBUTIONUNIT {96D7A0AA-D9CD-4E82-8453-0F45106095DB},AIRTERMINAL:SINGLEDUCT:VAV:REHEAT,AIR TERMINAL SINGLE DUCT VAV REHEAT 22,NODE 149,NODE 147,Air Nodes
 Component Set,59,ZONEHVAC:AIRDISTRIBUTIONUNIT,ZONEHVAC:AIRDISTRIBUTIONUNIT {47379221-9DCB-4C2E-B7C9-65F44A860DF9},AIRTERMINAL:SINGLEDUCT:VAV:REHEAT,AIR TERMINAL SINGLE DUCT VAV REHEAT 23,NODE 154,NODE 152,Air Nodes
 Component Set,60,ZONEHVAC:AIRDISTRIBUTIONUNIT,ZONEHVAC:AIRDISTRIBUTIONUNIT {1EFD0880-BF31-4281-826B-FC110DDB55DF},AIRTERMINAL:SINGLEDUCT:VAV:REHEAT,AIR TERMINAL SINGLE DUCT VAV REHEAT 24,NODE 159,NODE 157,Air Nodes
 Component Set,61,ZONEHVAC:AIRDISTRIBUTIONUNIT,ZONEHVAC:AIRDISTRIBUTIONUNIT {5633443A-0AA3-4F65-88E7-73A46BDA90B5},AIRTERMINAL:SINGLEDUCT:VAV:REHEAT,AIR TERMINAL SINGLE DUCT VAV REHEAT 25,NODE 164,NODE 162,Air Nodes
 Component Set,62,ZONEHVAC:AIRDISTRIBUTIONUNIT,ZONEHVAC:AIRDISTRIBUTIONUNIT {01BF87F8-BD6E-4132-B9DD-900ABBC1E332},AIRTERMINAL:SINGLEDUCT:VAV:REHEAT,AIR TERMINAL SINGLE DUCT VAV REHEAT 26,NODE 169,NODE 167,Air Nodes
 Component Set,63,AIRTERMINAL:SINGLEDUCT:VAV:REHEAT,AIR TERMINAL SINGLE DUCT VAV REHEAT 2,COIL:HEATING:WATER,COIL HEATING WATER 3,AIR TERMINAL SINGLE DUCT VAV REHEAT 2 DAMPER OUTLET,NODE 30,Air Nodes
 Component Set,64,AIRTERMINAL:SINGLEDUCT:VAV:REHEAT,AIR TERMINAL SINGLE DUCT VAV REHEAT 3,COIL:HEATING:WATER,COIL HEATING WATER 4,AIR TERMINAL SINGLE DUCT VAV REHEAT 3 DAMPER OUTLET,NODE 52,Air Nodes
 Component Set,65,AIRTERMINAL:SINGLEDUCT:VAV:REHEAT,AIR TERMINAL SINGLE DUCT VAV REHEAT 4,COIL:HEATING:WATER,COIL HEATING WATER 5,AIR TERMINAL SINGLE DUCT VAV REHEAT 4 DAMPER OUTLET,NODE 57,Air Nodes
 Component Set,66,AIRTERMINAL:SINGLEDUCT:VAV:REHEAT,AIR TERMINAL SINGLE DUCT VAV REHEAT 5,COIL:HEATING:WATER,COIL HEATING WATER 6,AIR TERMINAL SINGLE DUCT VAV REHEAT 5 DAMPER OUTLET,NODE 62,Air Nodes
 Component Set,67,AIRTERMINAL:SINGLEDUCT:VAV:REHEAT,AIR TERMINAL SINGLE DUCT VAV REHEAT 6,COIL:HEATING:WATER,COIL HEATING WATER 7,AIR TERMINAL SINGLE DUCT VAV REHEAT 6 DAMPER OUTLET,NODE 67,Air Nodes
 Component Set,68,AIRTERMINAL:SINGLEDUCT:VAV:REHEAT,AIR TERMINAL SINGLE DUCT VAV REHEAT 7,COIL:HEATING:WATER,COIL HEATING WATER 8,AIR TERMINAL SINGLE DUCT VAV REHEAT 7 DAMPER OUTLET,NODE 72,Air Nodes
 Component Set,69,AIRTERMINAL:SINGLEDUCT:VAV:REHEAT,AIR TERMINAL SINGLE DUCT VAV REHEAT 8,COIL:HEATING:WATER,COIL HEATING WATER 9,AIR TERMINAL SINGLE DUCT VAV REHEAT 8 DAMPER OUTLET,NODE 77,Air Nodes
 Component Set,70,AIRTERMINAL:SINGLEDUCT:VAV:REHEAT,AIR TERMINAL SINGLE DUCT VAV REHEAT 9,COIL:HEATING:WATER,COIL HEATING WATER 10,AIR TERMINAL SINGLE DUCT VAV REHEAT 9 DAMPER OUTLET,NODE 82,Air Nodes
 Component Set,71,AIRTERMINAL:SINGLEDUCT:VAV:REHEAT,AIR TERMINAL SINGLE DUCT VAV REHEAT 10,COIL:HEATING:WATER,COIL HEATING WATER 11,AIR TERMINAL SINGLE DUCT VAV REHEAT 10 DAMPER OUTLET,NODE 87,Air Nodes
 Component Set,72,AIRTERMINAL:SINGLEDUCT:VAV:REHEAT,AIR TERMINAL SINGLE DUCT VAV REHEAT 11,COIL:HEATING:WATER,COIL HEATING WATER 12,AIR TERMINAL SINGLE DUCT VAV REHEAT 11 DAMPER OUTLET,NODE 92,Air Nodes
 Component Set,73,AIRTERMINAL:SINGLEDUCT:VAV:REHEAT,AIR TERMINAL SINGLE DUCT VAV REHEAT 12,COIL:HEATING:WATER,COIL HEATING WATER 13,AIR TERMINAL SINGLE DUCT VAV REHEAT 12 DAMPER OUTLET,NODE 97,Air Nodes
 Component Set,74,AIRTERMINAL:SINGLEDUCT:VAV:REHEAT,AIR TERMINAL SINGLE DUCT VAV REHEAT 13,COIL:HEATING:WATER,COIL HEATING WATER 14,AIR TERMINAL SINGLE DUCT VAV REHEAT 13 DAMPER OUTLET,NODE 102,Air Nodes
 Component Set,75,AIRTERMINAL:SINGLEDUCT:VAV:REHEAT,AIR TERMINAL SINGLE DUCT VAV REHEAT 14,COIL:HEATING:WATER,COIL HEATING WATER 15,AIR TERMINAL SINGLE DUCT VAV REHEAT 14 DAMPER OUTLET,NODE 107,Air Nodes
 Component Set,76,AIRTERMINAL:SINGLEDUCT:VAV:REHEAT,AIR TERMINAL SINGLE DUCT VAV REHEAT 15,COIL:HEATING:WATER,COIL HEATING WATER 16,AIR TERMINAL SINGLE DUCT VAV REHEAT 15 DAMPER OUTLET,NODE 112,Air Nodes
 Component Set,77,AIRTERMINAL:SINGLEDUCT:VAV:REHEAT,AIR TERMINAL SINGLE DUCT VAV REHEAT 16,COIL:HEATING:WATER,COIL HEATING WATER 17,AIR TERMINAL SINGLE DUCT VAV REHEAT 16 DAMPER OUTLET,NODE 117,Air Nodes
 Component Set,78,AIRTERMINAL:SINGLEDUCT:VAV:REHEAT,AIR TERMINAL SINGLE DUCT VAV REHEAT 17,COIL:HEATING:WATER,COIL HEATING WATER 18,AIR TERMINAL SINGLE DUCT VAV REHEAT 17 DAMPER OUTLET,NODE 122,Air Nodes
 Component Set,79,AIRTERMINAL:SINGLEDUCT:VAV:REHEAT,AIR TERMINAL SINGLE DUCT VAV REHEAT 18,COIL:HEATING:WATER,COIL HEATING WATER 19,AIR TERMINAL SINGLE DUCT VAV REHEAT 18 DAMPER OUTLET,NODE 127,Air Nodes
 Component Set,80,AIRTERMINAL:SINGLEDUCT:VAV:REHEAT,AIR TERMINAL SINGLE DUCT VAV REHEAT 19,COIL:HEATING:WATER,COIL HEATING WATER 20,AIR TERMINAL SINGLE DUCT VAV REHEAT 19 DAMPER OUTLET,NODE 132,Air Nodes
 Component Set,81,AIRTERMINAL:SINGLEDUCT:VAV:REHEAT,AIR TERMINAL SINGLE DUCT VAV REHEAT 20,COIL:HEATING:WATER,COIL HEATING WATER 21,AIR TERMINAL SINGLE DUCT VAV REHEAT 20 DAMPER OUTLET,NODE 137,Air Nodes
 Component Set,82,AIRTERMINAL:SINGLEDUCT:VAV:REHEAT,AIR TERMINAL SINGLE DUCT VAV REHEAT 21,COIL:HEATING:WATER,COIL HEATING WATER 22,AIR TERMINAL SINGLE DUCT VAV REHEAT 21 DAMPER OUTLET,NODE 142,Air Nodes
 Component Set,83,AIRTERMINAL:SINGLEDUCT:VAV:REHEAT,AIR TERMINAL SINGLE DUCT VAV REHEAT 22,COIL:HEATING:WATER,COIL HEATING WATER 23,AIR TERMINAL SINGLE DUCT VAV REHEAT 22 DAMPER OUTLET,NODE 147,Air Nodes
 Component Set,84,AIRTERMINAL:SINGLEDUCT:VAV:REHEAT,AIR TERMINAL SINGLE DUCT VAV REHEAT 23,COIL:HEATING:WATER,COIL HEATING WATER 24,AIR TERMINAL SINGLE DUCT VAV REHEAT 23 DAMPER OUTLET,NODE 152,Air Nodes
 Component Set,85,AIRTERMINAL:SINGLEDUCT:VAV:REHEAT,AIR TERMINAL SINGLE DUCT VAV REHEAT 24,COIL:HEATING:WATER,COIL HEATING WATER 25,AIR TERMINAL SINGLE DUCT VAV REHEAT 24 DAMPER OUTLET,NODE 157,Air Nodes
 Component Set,86,AIRTERMINAL:SINGLEDUCT:VAV:REHEAT,AIR TERMINAL SINGLE DUCT VAV REHEAT 25,COIL:HEATING:WATER,COIL HEATING WATER 26,AIR TERMINAL SINGLE DUCT VAV REHEAT 25 DAMPER OUTLET,NODE 162,Air Nodes
 Component Set,87,AIRTERMINAL:SINGLEDUCT:VAV:REHEAT,AIR TERMINAL SINGLE DUCT VAV REHEAT 26,COIL:HEATING:WATER,COIL HEATING WATER 27,AIR TERMINAL SINGLE DUCT VAV REHEAT 26 DAMPER OUTLET,NODE 167,Air Nodes
 Component Set,88,AIRLOOPHVAC:OUTDOORAIRSYSTEM,AIR LOOP HVAC OUTDOOR AIR SYSTEM 1,OUTDOORAIR:MIXER,OUTDOORAIR:MIXER {0BC46581-61F1-40C4-96A9-67CD637B03B4},NODE 31,NODE 33,Air Nodes
 Component Set,89,COILSYSTEM:COOLING:DX,COIL COOLING DX TWO SPEED 1 COILSYSTEM,COIL:COOLING:DX:TWOSPEED,COIL COOLING DX TWO SPEED 1,NODE 33,NODE 34,Air Nodes
! ===============================================================
! <# Plant Loops>,<Number of Plant Loops>
 #Plant Loops,1
! <Plant Loop>,<Plant Loop Name>,<Loop Type>,<Inlet Node Name>,<Outlet Node Name>,<Branch List>,<Connector List>
! <Plant Loop Connector>,<Connector Type>,<Connector Name>,<Loop Name>,<Loop Type>,<Number of Inlets/Outlets>
! <Plant Loop Connector Branches>,<Connector Node Count>,<Connector Type>,<Connector Name>,<Inlet Branch>,<Outlet Branch>,<Loop Name>,<Loop Type>
! <Plant Loop Connector Nodes>,<Connector Node Count>,<Connector Type>,<Connector Name>,<Inlet Node>,<Outlet Node>,<Loop Name>,<Loop Type>
! <Plant Loop Supply Connection>,<Plant Loop Name>,<Supply Side Outlet Node Name>,<Demand Side Inlet Node Name>
! <Plant Loop Return Connection>,<Plant Loop Name>,<Demand Side Outlet Node Name>,<Supply Side Inlet Node Name>
 Plant Loop,PLANT LOOP 1,Demand,NODE 39,NODE 40,PLANT LOOP 1 DEMAND BRANCHES,PLANT LOOP 1 DEMAND CONNECTOR LIST
   Plant Loop Connector,Splitter,PLANT LOOP 1 DEMAND SPLITTER,PLANT LOOP 1,Demand,27
     Plant Loop Connector Branches,1,Splitter,PLANT LOOP 1 DEMAND SPLITTER,PLANT LOOP 1 DEMAND INLET BRANCH,PLANT LOOP 1 DEMAND BRANCH 1,PLANT LOOP 1,Demand
     Plant Loop Connector Nodes,   1,Splitter,PLANT LOOP 1 DEMAND SPLITTER,PLANT LOOP 1 DEMAND INLET PIPE NODE,NODE 41,PLANT LOOP 1,Demand
     Plant Loop Connector Branches,2,Splitter,PLANT LOOP 1 DEMAND SPLITTER,PLANT LOOP 1 DEMAND INLET BRANCH,PLANT LOOP 1 DEMAND BRANCH 2,PLANT LOOP 1,Demand
     Plant Loop Connector Nodes,   2,Splitter,PLANT LOOP 1 DEMAND SPLITTER,PLANT LOOP 1 DEMAND INLET PIPE NODE,NODE 50,PLANT LOOP 1,Demand
     Plant Loop Connector Branches,3,Splitter,PLANT LOOP 1 DEMAND SPLITTER,PLANT LOOP 1 DEMAND INLET BRANCH,PLANT LOOP 1 DEMAND BRANCH 3,PLANT LOOP 1,Demand
     Plant Loop Connector Nodes,   3,Splitter,PLANT LOOP 1 DEMAND SPLITTER,PLANT LOOP 1 DEMAND INLET PIPE NODE,NODE 55,PLANT LOOP 1,Demand
     Plant Loop Connector Branches,4,Splitter,PLANT LOOP 1 DEMAND SPLITTER,PLANT LOOP 1 DEMAND INLET BRANCH,PLANT LOOP 1 DEMAND BRANCH 4,PLANT LOOP 1,Demand
     Plant Loop Connector Nodes,   4,Splitter,PLANT LOOP 1 DEMAND SPLITTER,PLANT LOOP 1 DEMAND INLET PIPE NODE,NODE 60,PLANT LOOP 1,Demand
     Plant Loop Connector Branches,5,Splitter,PLANT LOOP 1 DEMAND SPLITTER,PLANT LOOP 1 DEMAND INLET BRANCH,PLANT LOOP 1 DEMAND BRANCH 5,PLANT LOOP 1,Demand
     Plant Loop Connector Nodes,   5,Splitter,PLANT LOOP 1 DEMAND SPLITTER,PLANT LOOP 1 DEMAND INLET PIPE NODE,NODE 65,PLANT LOOP 1,Demand
     Plant Loop Connector Branches,6,Splitter,PLANT LOOP 1 DEMAND SPLITTER,PLANT LOOP 1 DEMAND INLET BRANCH,PLANT LOOP 1 DEMAND BRANCH 6,PLANT LOOP 1,Demand
     Plant Loop Connector Nodes,   6,Splitter,PLANT LOOP 1 DEMAND SPLITTER,PLANT LOOP 1 DEMAND INLET PIPE NODE,NODE 70,PLANT LOOP 1,Demand
     Plant Loop Connector Branches,7,Splitter,PLANT LOOP 1 DEMAND SPLITTER,PLANT LOOP 1 DEMAND INLET BRANCH,PLANT LOOP 1 DEMAND BRANCH 7,PLANT LOOP 1,Demand
     Plant Loop Connector Nodes,   7,Splitter,PLANT LOOP 1 DEMAND SPLITTER,PLANT LOOP 1 DEMAND INLET PIPE NODE,NODE 75,PLANT LOOP 1,Demand
     Plant Loop Connector Branches,8,Splitter,PLANT LOOP 1 DEMAND SPLITTER,PLANT LOOP 1 DEMAND INLET BRANCH,PLANT LOOP 1 DEMAND BRANCH 8,PLANT LOOP 1,Demand
     Plant Loop Connector Nodes,   8,Splitter,PLANT LOOP 1 DEMAND SPLITTER,PLANT LOOP 1 DEMAND INLET PIPE NODE,NODE 80,PLANT LOOP 1,Demand
     Plant Loop Connector Branches,9,Splitter,PLANT LOOP 1 DEMAND SPLITTER,PLANT LOOP 1 DEMAND INLET BRANCH,PLANT LOOP 1 DEMAND BRANCH 9,PLANT LOOP 1,Demand
     Plant Loop Connector Nodes,   9,Splitter,PLANT LOOP 1 DEMAND SPLITTER,PLANT LOOP 1 DEMAND INLET PIPE NODE,NODE 85,PLANT LOOP 1,Demand
     Plant Loop Connector Branches,10,Splitter,PLANT LOOP 1 DEMAND SPLITTER,PLANT LOOP 1 DEMAND INLET BRANCH,PLANT LOOP 1 DEMAND BRANCH 10,PLANT LOOP 1,Demand
     Plant Loop Connector Nodes,   10,Splitter,PLANT LOOP 1 DEMAND SPLITTER,PLANT LOOP 1 DEMAND INLET PIPE NODE,NODE 90,PLANT LOOP 1,Demand
     Plant Loop Connector Branches,11,Splitter,PLANT LOOP 1 DEMAND SPLITTER,PLANT LOOP 1 DEMAND INLET BRANCH,PLANT LOOP 1 DEMAND BRANCH 11,PLANT LOOP 1,Demand
     Plant Loop Connector Nodes,   11,Splitter,PLANT LOOP 1 DEMAND SPLITTER,PLANT LOOP 1 DEMAND INLET PIPE NODE,NODE 95,PLANT LOOP 1,Demand
     Plant Loop Connector Branches,12,Splitter,PLANT LOOP 1 DEMAND SPLITTER,PLANT LOOP 1 DEMAND INLET BRANCH,PLANT LOOP 1 DEMAND BRANCH 12,PLANT LOOP 1,Demand
     Plant Loop Connector Nodes,   12,Splitter,PLANT LOOP 1 DEMAND SPLITTER,PLANT LOOP 1 DEMAND INLET PIPE NODE,NODE 100,PLANT LOOP 1,Demand
     Plant Loop Connector Branches,13,Splitter,PLANT LOOP 1 DEMAND SPLITTER,PLANT LOOP 1 DEMAND INLET BRANCH,PLANT LOOP 1 DEMAND BRANCH 13,PLANT LOOP 1,Demand
     Plant Loop Connector Nodes,   13,Splitter,PLANT LOOP 1 DEMAND SPLITTER,PLANT LOOP 1 DEMAND INLET PIPE NODE,NODE 105,PLANT LOOP 1,Demand
     Plant Loop Connector Branches,14,Splitter,PLANT LOOP 1 DEMAND SPLITTER,PLANT LOOP 1 DEMAND INLET BRANCH,PLANT LOOP 1 DEMAND BRANCH 14,PLANT LOOP 1,Demand
     Plant Loop Connector Nodes,   14,Splitter,PLANT LOOP 1 DEMAND SPLITTER,PLANT LOOP 1 DEMAND INLET PIPE NODE,NODE 110,PLANT LOOP 1,Demand
     Plant Loop Connector Branches,15,Splitter,PLANT LOOP 1 DEMAND SPLITTER,PLANT LOOP 1 DEMAND INLET BRANCH,PLANT LOOP 1 DEMAND BRANCH 15,PLANT LOOP 1,Demand
     Plant Loop Connector Nodes,   15,Splitter,PLANT LOOP 1 DEMAND SPLITTER,PLANT LOOP 1 DEMAND INLET PIPE NODE,NODE 115,PLANT LOOP 1,Demand
     Plant Loop Connector Branches,16,Splitter,PLANT LOOP 1 DEMAND SPLITTER,PLANT LOOP 1 DEMAND INLET BRANCH,PLANT LOOP 1 DEMAND BRANCH 16,PLANT LOOP 1,Demand
     Plant Loop Connector Nodes,   16,Splitter,PLANT LOOP 1 DEMAND SPLITTER,PLANT LOOP 1 DEMAND INLET PIPE NODE,NODE 120,PLANT LOOP 1,Demand
     Plant Loop Connector Branches,17,Splitter,PLANT LOOP 1 DEMAND SPLITTER,PLANT LOOP 1 DEMAND INLET BRANCH,PLANT LOOP 1 DEMAND BRANCH 17,PLANT LOOP 1,Demand
     Plant Loop Connector Nodes,   17,Splitter,PLANT LOOP 1 DEMAND SPLITTER,PLANT LOOP 1 DEMAND INLET PIPE NODE,NODE 125,PLANT LOOP 1,Demand
     Plant Loop Connector Branches,18,Splitter,PLANT LOOP 1 DEMAND SPLITTER,PLANT LOOP 1 DEMAND INLET BRANCH,PLANT LOOP 1 DEMAND BRANCH 18,PLANT LOOP 1,Demand
     Plant Loop Connector Nodes,   18,Splitter,PLANT LOOP 1 DEMAND SPLITTER,PLANT LOOP 1 DEMAND INLET PIPE NODE,NODE 130,PLANT LOOP 1,Demand
     Plant Loop Connector Branches,19,Splitter,PLANT LOOP 1 DEMAND SPLITTER,PLANT LOOP 1 DEMAND INLET BRANCH,PLANT LOOP 1 DEMAND BRANCH 19,PLANT LOOP 1,Demand
     Plant Loop Connector Nodes,   19,Splitter,PLANT LOOP 1 DEMAND SPLITTER,PLANT LOOP 1 DEMAND INLET PIPE NODE,NODE 135,PLANT LOOP 1,Demand
     Plant Loop Connector Branches,20,Splitter,PLANT LOOP 1 DEMAND SPLITTER,PLANT LOOP 1 DEMAND INLET BRANCH,PLANT LOOP 1 DEMAND BRANCH 20,PLANT LOOP 1,Demand
     Plant Loop Connector Nodes,   20,Splitter,PLANT LOOP 1 DEMAND SPLITTER,PLANT LOOP 1 DEMAND INLET PIPE NODE,NODE 140,PLANT LOOP 1,Demand
     Plant Loop Connector Branches,21,Splitter,PLANT LOOP 1 DEMAND SPLITTER,PLANT LOOP 1 DEMAND INLET BRANCH,PLANT LOOP 1 DEMAND BRANCH 21,PLANT LOOP 1,Demand
     Plant Loop Connector Nodes,   21,Splitter,PLANT LOOP 1 DEMAND SPLITTER,PLANT LOOP 1 DEMAND INLET PIPE NODE,NODE 145,PLANT LOOP 1,Demand
     Plant Loop Connector Branches,22,Splitter,PLANT LOOP 1 DEMAND SPLITTER,PLANT LOOP 1 DEMAND INLET BRANCH,PLANT LOOP 1 DEMAND BRANCH 22,PLANT LOOP 1,Demand
     Plant Loop Connector Nodes,   22,Splitter,PLANT LOOP 1 DEMAND SPLITTER,PLANT LOOP 1 DEMAND INLET PIPE NODE,NODE 150,PLANT LOOP 1,Demand
     Plant Loop Connector Branches,23,Splitter,PLANT LOOP 1 DEMAND SPLITTER,PLANT LOOP 1 DEMAND INLET BRANCH,PLANT LOOP 1 DEMAND BRANCH 23,PLANT LOOP 1,Demand
     Plant Loop Connector Nodes,   23,Splitter,PLANT LOOP 1 DEMAND SPLITTER,PLANT LOOP 1 DEMAND INLET PIPE NODE,NODE 155,PLANT LOOP 1,Demand
     Plant Loop Connector Branches,24,Splitter,PLANT LOOP 1 DEMAND SPLITTER,PLANT LOOP 1 DEMAND INLET BRANCH,PLANT LOOP 1 DEMAND BRANCH 24,PLANT LOOP 1,Demand
     Plant Loop Connector Nodes,   24,Splitter,PLANT LOOP 1 DEMAND SPLITTER,PLANT LOOP 1 DEMAND INLET PIPE NODE,NODE 160,PLANT LOOP 1,Demand
     Plant Loop Connector Branches,25,Splitter,PLANT LOOP 1 DEMAND SPLITTER,PLANT LOOP 1 DEMAND INLET BRANCH,PLANT LOOP 1 DEMAND BRANCH 25,PLANT LOOP 1,Demand
     Plant Loop Connector Nodes,   25,Splitter,PLANT LOOP 1 DEMAND SPLITTER,PLANT LOOP 1 DEMAND INLET PIPE NODE,NODE 165,PLANT LOOP 1,Demand
     Plant Loop Connector Branches,26,Splitter,PLANT LOOP 1 DEMAND SPLITTER,PLANT LOOP 1 DEMAND INLET BRANCH,PLANT LOOP 1 DEMAND BRANCH 26,PLANT LOOP 1,Demand
     Plant Loop Connector Nodes,   26,Splitter,PLANT LOOP 1 DEMAND SPLITTER,PLANT LOOP 1 DEMAND INLET PIPE NODE,NODE 170,PLANT LOOP 1,Demand
     Plant Loop Connector Branches,27,Splitter,PLANT LOOP 1 DEMAND SPLITTER,PLANT LOOP 1 DEMAND INLET BRANCH,PLANT LOOP 1 DEMAND BYPASS BRANCH,PLANT LOOP 1,Demand
     Plant Loop Connector Nodes,   27,Splitter,PLANT LOOP 1 DEMAND SPLITTER,PLANT LOOP 1 DEMAND INLET PIPE NODE,PLANT LOOP 1 DEMAND BYPASS PIPE INLET NODE,PLANT LOOP 1,Demand
   Plant Loop Connector,Mixer,PLANT LOOP 1 DEMAND MIXER,PLANT LOOP 1,Demand,27
     Plant Loop Connector Branches,1,Mixer,PLANT LOOP 1 DEMAND MIXER,PLANT LOOP 1 DEMAND BRANCH 1,PLANT LOOP 1 DEMAND OUTLET BRANCH,PLANT LOOP 1,Demand
     Plant Loop Connector Nodes,   1,Mixer,PLANT LOOP 1 DEMAND MIXER,NODE 47,PLANT LOOP 1 DEMAND OUTLET PIPE NODE,PLANT LOOP 1,Demand
     Plant Loop Connector Branches,2,Mixer,PLANT LOOP 1 DEMAND MIXER,PLANT LOOP 1 DEMAND BRANCH 2,PLANT LOOP 1 DEMAND OUTLET BRANCH,PLANT LOOP 1,Demand
     Plant Loop Connector Nodes,   2,Mixer,PLANT LOOP 1 DEMAND MIXER,NODE 51,PLANT LOOP 1 DEMAND OUTLET PIPE NODE,PLANT LOOP 1,Demand
     Plant Loop Connector Branches,3,Mixer,PLANT LOOP 1 DEMAND MIXER,PLANT LOOP 1 DEMAND BRANCH 3,PLANT LOOP 1 DEMAND OUTLET BRANCH,PLANT LOOP 1,Demand
     Plant Loop Connector Nodes,   3,Mixer,PLANT LOOP 1 DEMAND MIXER,NODE 56,PLANT LOOP 1 DEMAND OUTLET PIPE NODE,PLANT LOOP 1,Demand
     Plant Loop Connector Branches,4,Mixer,PLANT LOOP 1 DEMAND MIXER,PLANT LOOP 1 DEMAND BRANCH 4,PLANT LOOP 1 DEMAND OUTLET BRANCH,PLANT LOOP 1,Demand
     Plant Loop Connector Nodes,   4,Mixer,PLANT LOOP 1 DEMAND MIXER,NODE 61,PLANT LOOP 1 DEMAND OUTLET PIPE NODE,PLANT LOOP 1,Demand
     Plant Loop Connector Branches,5,Mixer,PLANT LOOP 1 DEMAND MIXER,PLANT LOOP 1 DEMAND BRANCH 5,PLANT LOOP 1 DEMAND OUTLET BRANCH,PLANT LOOP 1,Demand
     Plant Loop Connector Nodes,   5,Mixer,PLANT LOOP 1 DEMAND MIXER,NODE 66,PLANT LOOP 1 DEMAND OUTLET PIPE NODE,PLANT LOOP 1,Demand
     Plant Loop Connector Branches,6,Mixer,PLANT LOOP 1 DEMAND MIXER,PLANT LOOP 1 DEMAND BRANCH 6,PLANT LOOP 1 DEMAND OUTLET BRANCH,PLANT LOOP 1,Demand
     Plant Loop Connector Nodes,   6,Mixer,PLANT LOOP 1 DEMAND MIXER,NODE 71,PLANT LOOP 1 DEMAND OUTLET PIPE NODE,PLANT LOOP 1,Demand
     Plant Loop Connector Branches,7,Mixer,PLANT LOOP 1 DEMAND MIXER,PLANT LOOP 1 DEMAND BRANCH 7,PLANT LOOP 1 DEMAND OUTLET BRANCH,PLANT LOOP 1,Demand
     Plant Loop Connector Nodes,   7,Mixer,PLANT LOOP 1 DEMAND MIXER,NODE 76,PLANT LOOP 1 DEMAND OUTLET PIPE NODE,PLANT LOOP 1,Demand
     Plant Loop Connector Branches,8,Mixer,PLANT LOOP 1 DEMAND MIXER,PLANT LOOP 1 DEMAND BRANCH 8,PLANT LOOP 1 DEMAND OUTLET BRANCH,PLANT LOOP 1,Demand
     Plant Loop Connector Nodes,   8,Mixer,PLANT LOOP 1 DEMAND MIXER,NODE 81,PLANT LOOP 1 DEMAND OUTLET PIPE NODE,PLANT LOOP 1,Demand
     Plant Loop Connector Branches,9,Mixer,PLANT LOOP 1 DEMAND MIXER,PLANT LOOP 1 DEMAND BRANCH 9,PLANT LOOP 1 DEMAND OUTLET BRANCH,PLANT LOOP 1,Demand
     Plant Loop Connector Nodes,   9,Mixer,PLANT LOOP 1 DEMAND MIXER,NODE 86,PLANT LOOP 1 DEMAND OUTLET PIPE NODE,PLANT LOOP 1,Demand
     Plant Loop Connector Branches,10,Mixer,PLANT LOOP 1 DEMAND MIXER,PLANT LOOP 1 DEMAND BRANCH 10,PLANT LOOP 1 DEMAND OUTLET BRANCH,PLANT LOOP 1,Demand
     Plant Loop Connector Nodes,   10,Mixer,PLANT LOOP 1 DEMAND MIXER,NODE 91,PLANT LOOP 1 DEMAND OUTLET PIPE NODE,PLANT LOOP 1,Demand
     Plant Loop Connector Branches,11,Mixer,PLANT LOOP 1 DEMAND MIXER,PLANT LOOP 1 DEMAND BRANCH 11,PLANT LOOP 1 DEMAND OUTLET BRANCH,PLANT LOOP 1,Demand
     Plant Loop Connector Nodes,   11,Mixer,PLANT LOOP 1 DEMAND MIXER,NODE 96,PLANT LOOP 1 DEMAND OUTLET PIPE NODE,PLANT LOOP 1,Demand
     Plant Loop Connector Branches,12,Mixer,PLANT LOOP 1 DEMAND MIXER,PLANT LOOP 1 DEMAND BRANCH 12,PLANT LOOP 1 DEMAND OUTLET BRANCH,PLANT LOOP 1,Demand
     Plant Loop Connector Nodes,   12,Mixer,PLANT LOOP 1 DEMAND MIXER,NODE 101,PLANT LOOP 1 DEMAND OUTLET PIPE NODE,PLANT LOOP 1,Demand
     Plant Loop Connector Branches,13,Mixer,PLANT LOOP 1 DEMAND MIXER,PLANT LOOP 1 DEMAND BRANCH 13,PLANT LOOP 1 DEMAND OUTLET BRANCH,PLANT LOOP 1,Demand
     Plant Loop Connector Nodes,   13,Mixer,PLANT LOOP 1 DEMAND MIXER,NODE 106,PLANT LOOP 1 DEMAND OUTLET PIPE NODE,PLANT LOOP 1,Demand
     Plant Loop Connector Branches,14,Mixer,PLANT LOOP 1 DEMAND MIXER,PLANT LOOP 1 DEMAND BRANCH 14,PLANT LOOP 1 DEMAND OUTLET BRANCH,PLANT LOOP 1,Demand
     Plant Loop Connector Nodes,   14,Mixer,PLANT LOOP 1 DEMAND MIXER,NODE 111,PLANT LOOP 1 DEMAND OUTLET PIPE NODE,PLANT LOOP 1,Demand
     Plant Loop Connector Branches,15,Mixer,PLANT LOOP 1 DEMAND MIXER,PLANT LOOP 1 DEMAND BRANCH 15,PLANT LOOP 1 DEMAND OUTLET BRANCH,PLANT LOOP 1,Demand
     Plant Loop Connector Nodes,   15,Mixer,PLANT LOOP 1 DEMAND MIXER,NODE 116,PLANT LOOP 1 DEMAND OUTLET PIPE NODE,PLANT LOOP 1,Demand
     Plant Loop Connector Branches,16,Mixer,PLANT LOOP 1 DEMAND MIXER,PLANT LOOP 1 DEMAND BRANCH 16,PLANT LOOP 1 DEMAND OUTLET BRANCH,PLANT LOOP 1,Demand
     Plant Loop Connector Nodes,   16,Mixer,PLANT LOOP 1 DEMAND MIXER,NODE 121,PLANT LOOP 1 DEMAND OUTLET PIPE NODE,PLANT LOOP 1,Demand
     Plant Loop Connector Branches,17,Mixer,PLANT LOOP 1 DEMAND MIXER,PLANT LOOP 1 DEMAND BRANCH 17,PLANT LOOP 1 DEMAND OUTLET BRANCH,PLANT LOOP 1,Demand
     Plant Loop Connector Nodes,   17,Mixer,PLANT LOOP 1 DEMAND MIXER,NODE 126,PLANT LOOP 1 DEMAND OUTLET PIPE NODE,PLANT LOOP 1,Demand
     Plant Loop Connector Branches,18,Mixer,PLANT LOOP 1 DEMAND MIXER,PLANT LOOP 1 DEMAND BRANCH 18,PLANT LOOP 1 DEMAND OUTLET BRANCH,PLANT LOOP 1,Demand
     Plant Loop Connector Nodes,   18,Mixer,PLANT LOOP 1 DEMAND MIXER,NODE 131,PLANT LOOP 1 DEMAND OUTLET PIPE NODE,PLANT LOOP 1,Demand
     Plant Loop Connector Branches,19,Mixer,PLANT LOOP 1 DEMAND MIXER,PLANT LOOP 1 DEMAND BRANCH 19,PLANT LOOP 1 DEMAND OUTLET BRANCH,PLANT LOOP 1,Demand
     Plant Loop Connector Nodes,   19,Mixer,PLANT LOOP 1 DEMAND MIXER,NODE 136,PLANT LOOP 1 DEMAND OUTLET PIPE NODE,PLANT LOOP 1,Demand
     Plant Loop Connector Branches,20,Mixer,PLANT LOOP 1 DEMAND MIXER,PLANT LOOP 1 DEMAND BRANCH 20,PLANT LOOP 1 DEMAND OUTLET BRANCH,PLANT LOOP 1,Demand
     Plant Loop Connector Nodes,   20,Mixer,PLANT LOOP 1 DEMAND MIXER,NODE 141,PLANT LOOP 1 DEMAND OUTLET PIPE NODE,PLANT LOOP 1,Demand
     Plant Loop Connector Branches,21,Mixer,PLANT LOOP 1 DEMAND MIXER,PLANT LOOP 1 DEMAND BRANCH 21,PLANT LOOP 1 DEMAND OUTLET BRANCH,PLANT LOOP 1,Demand
     Plant Loop Connector Nodes,   21,Mixer,PLANT LOOP 1 DEMAND MIXER,NODE 146,PLANT LOOP 1 DEMAND OUTLET PIPE NODE,PLANT LOOP 1,Demand
     Plant Loop Connector Branches,22,Mixer,PLANT LOOP 1 DEMAND MIXER,PLANT LOOP 1 DEMAND BRANCH 22,PLANT LOOP 1 DEMAND OUTLET BRANCH,PLANT LOOP 1,Demand
     Plant Loop Connector Nodes,   22,Mixer,PLANT LOOP 1 DEMAND MIXER,NODE 151,PLANT LOOP 1 DEMAND OUTLET PIPE NODE,PLANT LOOP 1,Demand
     Plant Loop Connector Branches,23,Mixer,PLANT LOOP 1 DEMAND MIXER,PLANT LOOP 1 DEMAND BRANCH 23,PLANT LOOP 1 DEMAND OUTLET BRANCH,PLANT LOOP 1,Demand
     Plant Loop Connector Nodes,   23,Mixer,PLANT LOOP 1 DEMAND MIXER,NODE 156,PLANT LOOP 1 DEMAND OUTLET PIPE NODE,PLANT LOOP 1,Demand
     Plant Loop Connector Branches,24,Mixer,PLANT LOOP 1 DEMAND MIXER,PLANT LOOP 1 DEMAND BRANCH 24,PLANT LOOP 1 DEMAND OUTLET BRANCH,PLANT LOOP 1,Demand
     Plant Loop Connector Nodes,   24,Mixer,PLANT LOOP 1 DEMAND MIXER,NODE 161,PLANT LOOP 1 DEMAND OUTLET PIPE NODE,PLANT LOOP 1,Demand
     Plant Loop Connector Branches,25,Mixer,PLANT LOOP 1 DEMAND MIXER,PLANT LOOP 1 DEMAND BRANCH 25,PLANT LOOP 1 DEMAND OUTLET BRANCH,PLANT LOOP 1,Demand
     Plant Loop Connector Nodes,   25,Mixer,PLANT LOOP 1 DEMAND MIXER,NODE 166,PLANT LOOP 1 DEMAND OUTLET PIPE NODE,PLANT LOOP 1,Demand
     Plant Loop Connector Branches,26,Mixer,PLANT LOOP 1 DEMAND MIXER,PLANT LOOP 1 DEMAND BRANCH 26,PLANT LOOP 1 DEMAND OUTLET BRANCH,PLANT LOOP 1,Demand
     Plant Loop Connector Nodes,   26,Mixer,PLANT LOOP 1 DEMAND MIXER,NODE 171,PLANT LOOP 1 DEMAND OUTLET PIPE NODE,PLANT LOOP 1,Demand
     Plant Loop Connector Branches,27,Mixer,PLANT LOOP 1 DEMAND MIXER,PLANT LOOP 1 DEMAND BYPASS BRANCH,PLANT LOOP 1 DEMAND OUTLET BRANCH,PLANT LOOP 1,Demand
     Plant Loop Connector Nodes,   27,Mixer,PLANT LOOP 1 DEMAND MIXER,PLANT LOOP 1 DEMAND BYPASS PIPE OUTLET NODE,PLANT LOOP 1 DEMAND OUTLET PIPE NODE,PLANT LOOP 1,Demand
 Plant Loop,PLANT LOOP 1,Supply,NODE 36,NODE 37,PLANT LOOP 1 SUPPLY BRANCHES,PLANT LOOP 1 SUPPLY CONNECTOR LIST
   Plant Loop Connector,Splitter,PLANT LOOP 1 SUPPLY SPLITTER,PLANT LOOP 1,Supply,2
     Plant Loop Connector Branches,1,Splitter,PLANT LOOP 1 SUPPLY SPLITTER,PLANT LOOP 1 SUPPLY INLET BRANCH,PLANT LOOP 1 SUPPLY BRANCH 1,PLANT LOOP 1,Supply
     Plant Loop Connector Nodes,   1,Splitter,PLANT LOOP 1 SUPPLY SPLITTER,NODE 42,NODE 38,PLANT LOOP 1,Supply
     Plant Loop Connector Branches,2,Splitter,PLANT LOOP 1 SUPPLY SPLITTER,PLANT LOOP 1 SUPPLY INLET BRANCH,PLANT LOOP 1 SUPPLY BRANCH 2,PLANT LOOP 1,Supply
     Plant Loop Connector Nodes,   2,Splitter,PLANT LOOP 1 SUPPLY SPLITTER,NODE 42,NODE 44,PLANT LOOP 1,Supply
   Plant Loop Connector,Mixer,PLANT LOOP 1 SUPPLY MIXER,PLANT LOOP 1,Supply,2
     Plant Loop Connector Branches,1,Mixer,PLANT LOOP 1 SUPPLY MIXER,PLANT LOOP 1 SUPPLY BRANCH 1,PLANT LOOP 1 SUPPLY OUTLET BRANCH,PLANT LOOP 1,Supply
     Plant Loop Connector Nodes,   1,Mixer,PLANT LOOP 1 SUPPLY MIXER,NODE 43,NODE 46,PLANT LOOP 1,Supply
     Plant Loop Connector Branches,2,Mixer,PLANT LOOP 1 SUPPLY MIXER,PLANT LOOP 1 SUPPLY BRANCH 2,PLANT LOOP 1 SUPPLY OUTLET BRANCH,PLANT LOOP 1,Supply
     Plant Loop Connector Nodes,   2,Mixer,PLANT LOOP 1 SUPPLY MIXER,NODE 45,NODE 46,PLANT LOOP 1,Supply
 Plant Loop Supply Connection,PLANT LOOP 1,NODE 37,NODE 39
 Plant Loop Return Connection,PLANT LOOP 1,NODE 40,NODE 36
! ===============================================================
! <# Condenser Loops>,<Number of Condenser Loops>
 #Condenser Loops,0
! <Condenser Loop>,<Condenser Loop Name>,<Loop Type>,<Inlet Node Name>,<Outlet Node Name>,<Branch List>,<Connector List>
! <Condenser Loop Connector>,<Connector Type>,<Connector Name>,<Loop Name>,<Loop Type>,<Number of Inlets/Outlets>
! <Condenser Loop Connector Branches>,<Connector Node Count>,<Connector Type>,<Connector Name>,<Inlet Branch>,<Outlet Branch>,<Loop Name>,<Loop Type>
! <Condenser Loop Connector Nodes>,<Connector Node Count>,<Connector Type>,<Connector Name>,<Inlet Node>,<Outlet Node>,<Loop Name>,<Loop Type>
! <Condenser Loop Supply Connection>,<Condenser Loop Name>,<Supply Side Outlet Node Name>,<Demand Side Inlet Node Name>
! <Condenser Loop Return Connection>,<Condenser Loop Name>,<Demand Side Outlet Node Name>,<Supply Side Inlet Node Name>
! ===============================================================
! <# Controlled Zones>,<Number of Controlled Zones>
 #Controlled Zones,25
! <Controlled Zone>,<Controlled Zone Name>,<Equip List Name>,<Control List Name>,<Zone Node Name>,<Return Air Node Name>,<# Inlet Nodes>,<# Exhaust Nodes>
! <Controlled Zone Inlet>,<Inlet Node Count>,<Controlled Zone Name>,<Supply Air Inlet Node Name>,<SD Sys:Cooling/Heating [DD:Cooling] Inlet Node Name>,<DD Sys:Heating Inlet Node Name>
! <Controlled Zone Exhaust>,<Exhaust Node Count>,<Controlled Zone Name>,<Exhaust Air Node Name>
 Controlled Zone,THERMAL ZONE 11,ZONE HVAC EQUIPMENT LIST 11,,NODE 11,NODE 103,1,0
   Controlled Zone Inlet,1,THERMAL ZONE 11,NODE 102,NODE 104,N/A
 Controlled Zone,THERMAL ZONE 7,ZONE HVAC EQUIPMENT LIST 7,,NODE 7,NODE 58,1,0
   Controlled Zone Inlet,1,THERMAL ZONE 7,NODE 57,NODE 59,N/A
 Controlled Zone,THERMAL ZONE 5,ZONE HVAC EQUIPMENT LIST 5,,NODE 5,NODE 93,1,0
   Controlled Zone Inlet,1,THERMAL ZONE 5,NODE 92,NODE 94,N/A
 Controlled Zone,THERMAL ZONE 14,ZONE HVAC EQUIPMENT LIST 14,,NODE 14,NODE 53,1,0
   Controlled Zone Inlet,1,THERMAL ZONE 14,NODE 52,NODE 54,N/A
 Controlled Zone,THERMAL ZONE 24,ZONE HVAC EQUIPMENT LIST 24,,NODE 24,NODE 128,1,0
   Controlled Zone Inlet,1,THERMAL ZONE 24,NODE 127,NODE 129,N/A
 Controlled Zone,THERMAL ZONE 22,ZONE HVAC EQUIPMENT LIST 22,,NODE 22,NODE 168,1,0
   Controlled Zone Inlet,1,THERMAL ZONE 22,NODE 167,NODE 169,N/A
 Controlled Zone,THERMAL ZONE 18,ZONE HVAC EQUIPMENT LIST 18,,NODE 18,NODE 108,1,0
   Controlled Zone Inlet,1,THERMAL ZONE 18,NODE 107,NODE 109,N/A
 Controlled Zone,THERMAL ZONE 4,ZONE HVAC EQUIPMENT LIST 4,,NODE 4,NODE 113,1,0
   Controlled Zone Inlet,1,THERMAL ZONE 4,NODE 112,NODE 114,N/A
 Controlled Zone,THERMAL ZONE 15,ZONE HVAC EQUIPMENT LIST 15,,NODE 15,NODE 63,1,0
   Controlled Zone Inlet,1,THERMAL ZONE 15,NODE 62,NODE 64,N/A
 Controlled Zone,THERMAL ZONE 10,ZONE HVAC EQUIPMENT LIST 10,,NODE 10,NODE 148,1,0
   Controlled Zone Inlet,1,THERMAL ZONE 10,NODE 147,NODE 149,N/A
 Controlled Zone,THERMAL ZONE 17,ZONE HVAC EQUIPMENT LIST 17,,NODE 17,NODE 143,1,0
   Controlled Zone Inlet,1,THERMAL ZONE 17,NODE 142,NODE 144,N/A
 Controlled Zone,THERMAL ZONE 25,ZONE HVAC EQUIPMENT LIST 25,,NODE 25,NODE 153,1,0
   Controlled Zone Inlet,1,THERMAL ZONE 25,NODE 152,NODE 154,N/A
 Controlled Zone,THERMAL ZONE 23,ZONE HVAC EQUIPMENT LIST 23,,NODE 23,NODE 73,1,0
   Controlled Zone Inlet,1,THERMAL ZONE 23,NODE 72,NODE 74,N/A
 Controlled Zone,THERMAL ZONE 12,ZONE HVAC EQUIPMENT LIST 12,,NODE 12,NODE 158,1,0
   Controlled Zone Inlet,1,THERMAL ZONE 12,NODE 157,NODE 159,N/A
 Controlled Zone,THERMAL ZONE 3,ZONE HVAC EQUIPMENT LIST 3,,NODE 3,NODE 78,1,0
   Controlled Zone Inlet,1,THERMAL ZONE 3,NODE 77,NODE 79,N/A
 Controlled Zone,THERMAL ZONE 20,ZONE HVAC EQUIPMENT LIST 20,,NODE 20,NODE 48,1,0
   Controlled Zone Inlet,1,THERMAL ZONE 20,NODE 30,NODE 49,N/A
 Controlled Zone,THERMAL ZONE 13,ZONE HVAC EQUIPMENT LIST 13,,NODE 13,NODE 83,1,0
   Controlled Zone Inlet,1,THERMAL ZONE 13,NODE 82,NODE 84,N/A
 Controlled Zone,THERMAL ZONE 8,ZONE HVAC EQUIPMENT LIST 8,,NODE 8,NODE 88,1,0
   Controlled Zone Inlet,1,THERMAL ZONE 8,NODE 87,NODE 89,N/A
 Controlled Zone,THERMAL ZONE 21,ZONE HVAC EQUIPMENT LIST 21,,NODE 21,NODE 118,1,0
   Controlled Zone Inlet,1,THERMAL ZONE 21,NODE 117,NODE 119,N/A
 Controlled Zone,THERMAL ZONE 19,ZONE HVAC EQUIPMENT LIST 19,,NODE 19,NODE 138,1,0
   Controlled Zone Inlet,1,THERMAL ZONE 19,NODE 137,NODE 139,N/A
 Controlled Zone,THERMAL ZONE 16,ZONE HVAC EQUIPMENT LIST 16,,NODE 16,NODE 123,1,0
   Controlled Zone Inlet,1,THERMAL ZONE 16,NODE 122,NODE 124,N/A
 Controlled Zone,THERMAL ZONE 6,ZONE HVAC EQUIPMENT LIST 6,,NODE 6,NODE 68,1,0
   Controlled Zone Inlet,1,THERMAL ZONE 6,NODE 67,NODE 69,N/A
 Controlled Zone,THERMAL ZONE 1,ZONE HVAC EQUIPMENT LIST 1,,NODE 1,NODE 133,1,0
   Controlled Zone Inlet,1,THERMAL ZONE 1,NODE 132,NODE 134,N/A
 Controlled Zone,THERMAL ZONE 2,ZONE HVAC EQUIPMENT LIST 2,,NODE 2,NODE 163,1,0
   Controlled Zone Inlet,1,THERMAL ZONE 2,NODE 162,NODE 164,N/A
 Controlled Zone,THERMAL ZONE 9,ZONE HVAC EQUIPMENT LIST 9,,NODE 9,NODE 98,1,0
   Controlled Zone Inlet,1,THERMAL ZONE 9,NODE 97,NODE 99,N/A
! ===============================================================
! <#Zone Equipment Lists>,<Number of Zone Equipment Lists>
 #Zone Equipment Lists,25
! <Zone Equipment List>,<Zone Equipment List Count>,<Zone Equipment List Name>,<Zone Name>,<Number of Components>
! <Zone Equipment Component>,<Component Count>,<Component Type>,<Component Name>,<Zone Name>,<Heating Priority>,<Cooling Priority>
 Zone Equipment List,1,ZONE HVAC EQUIPMENT LIST 11,THERMAL ZONE 11,1
   Zone Equipment Component,1,ZONEHVAC:AIRDISTRIBUTIONUNIT,ZONEHVAC:AIRDISTRIBUTIONUNIT {C05E0255-6D5F-4EFB-8A9E-D2BF94417094},THERMAL ZONE 11,1,1
 Zone Equipment List,2,ZONE HVAC EQUIPMENT LIST 7,THERMAL ZONE 7,1
   Zone Equipment Component,1,ZONEHVAC:AIRDISTRIBUTIONUNIT,ZONEHVAC:AIRDISTRIBUTIONUNIT {0EAF8232-9393-432D-AAF7-62A084F07DDD},THERMAL ZONE 7,1,1
 Zone Equipment List,3,ZONE HVAC EQUIPMENT LIST 5,THERMAL ZONE 5,1
   Zone Equipment Component,1,ZONEHVAC:AIRDISTRIBUTIONUNIT,ZONEHVAC:AIRDISTRIBUTIONUNIT {9F7DE79C-E088-4DF7-9CD0-887E3F2C57B7},THERMAL ZONE 5,1,1
 Zone Equipment List,4,ZONE HVAC EQUIPMENT LIST 14,THERMAL ZONE 14,1
   Zone Equipment Component,1,ZONEHVAC:AIRDISTRIBUTIONUNIT,ZONEHVAC:AIRDISTRIBUTIONUNIT {24A2FA5A-86B6-4246-B787-1C6AD584FAD6},THERMAL ZONE 14,1,1
 Zone Equipment List,5,ZONE HVAC EQUIPMENT LIST 24,THERMAL ZONE 24,1
   Zone Equipment Component,1,ZONEHVAC:AIRDISTRIBUTIONUNIT,ZONEHVAC:AIRDISTRIBUTIONUNIT {2EAA0516-F4F7-4F98-8FBD-08D54A218901},THERMAL ZONE 24,1,1
 Zone Equipment List,6,ZONE HVAC EQUIPMENT LIST 22,THERMAL ZONE 22,1
   Zone Equipment Component,1,ZONEHVAC:AIRDISTRIBUTIONUNIT,ZONEHVAC:AIRDISTRIBUTIONUNIT {01BF87F8-BD6E-4132-B9DD-900ABBC1E332},THERMAL ZONE 22,1,1
 Zone Equipment List,7,ZONE HVAC EQUIPMENT LIST 18,THERMAL ZONE 18,1
   Zone Equipment Component,1,ZONEHVAC:AIRDISTRIBUTIONUNIT,ZONEHVAC:AIRDISTRIBUTIONUNIT {EDC382F1-8498-4354-97C6-7383C09C9001},THERMAL ZONE 18,1,1
 Zone Equipment List,8,ZONE HVAC EQUIPMENT LIST 4,THERMAL ZONE 4,1
   Zone Equipment Component,1,ZONEHVAC:AIRDISTRIBUTIONUNIT,ZONEHVAC:AIRDISTRIBUTIONUNIT {DC3D8000-FF66-43A9-986E-5C4CD2BE554F},THERMAL ZONE 4,1,1
 Zone Equipment List,9,ZONE HVAC EQUIPMENT LIST 15,THERMAL ZONE 15,1
   Zone Equipment Component,1,ZONEHVAC:AIRDISTRIBUTIONUNIT,ZONEHVAC:AIRDISTRIBUTIONUNIT {84D4137A-5D5E-403A-ACA1-AA736FD9D296},THERMAL ZONE 15,1,1
 Zone Equipment List,10,ZONE HVAC EQUIPMENT LIST 10,THERMAL ZONE 10,1
   Zone Equipment Component,1,ZONEHVAC:AIRDISTRIBUTIONUNIT,ZONEHVAC:AIRDISTRIBUTIONUNIT {96D7A0AA-D9CD-4E82-8453-0F45106095DB},THERMAL ZONE 10,1,1
 Zone Equipment List,11,ZONE HVAC EQUIPMENT LIST 17,THERMAL ZONE 17,1
   Zone Equipment Component,1,ZONEHVAC:AIRDISTRIBUTIONUNIT,ZONEHVAC:AIRDISTRIBUTIONUNIT {B664627C-5991-4E4E-B164-EC48B3D3DE7D},THERMAL ZONE 17,1,1
 Zone Equipment List,12,ZONE HVAC EQUIPMENT LIST 25,THERMAL ZONE 25,1
   Zone Equipment Component,1,ZONEHVAC:AIRDISTRIBUTIONUNIT,ZONEHVAC:AIRDISTRIBUTIONUNIT {47379221-9DCB-4C2E-B7C9-65F44A860DF9},THERMAL ZONE 25,1,1
 Zone Equipment List,13,ZONE HVAC EQUIPMENT LIST 23,THERMAL ZONE 23,1
   Zone Equipment Component,1,ZONEHVAC:AIRDISTRIBUTIONUNIT,ZONEHVAC:AIRDISTRIBUTIONUNIT {8F07469E-F4BD-4AE4-9FC5-AB81C99FCF60},THERMAL ZONE 23,1,1
 Zone Equipment List,14,ZONE HVAC EQUIPMENT LIST 12,THERMAL ZONE 12,1
   Zone Equipment Component,1,ZONEHVAC:AIRDISTRIBUTIONUNIT,ZONEHVAC:AIRDISTRIBUTIONUNIT {1EFD0880-BF31-4281-826B-FC110DDB55DF},THERMAL ZONE 12,1,1
 Zone Equipment List,15,ZONE HVAC EQUIPMENT LIST 3,THERMAL ZONE 3,1
   Zone Equipment Component,1,ZONEHVAC:AIRDISTRIBUTIONUNIT,ZONEHVAC:AIRDISTRIBUTIONUNIT {B5A2144C-646C-4726-80CB-6DF011E65A28},THERMAL ZONE 3,1,1
 Zone Equipment List,16,ZONE HVAC EQUIPMENT LIST 20,THERMAL ZONE 20,1
   Zone Equipment Component,1,ZONEHVAC:AIRDISTRIBUTIONUNIT,ZONEHVAC:AIRDISTRIBUTIONUNIT {B89F2D7F-1E8C-470D-9CF7-31002BAAE9F1},THERMAL ZONE 20,1,1
 Zone Equipment List,17,ZONE HVAC EQUIPMENT LIST 13,THERMAL ZONE 13,1
   Zone Equipment Component,1,ZONEHVAC:AIRDISTRIBUTIONUNIT,ZONEHVAC:AIRDISTRIBUTIONUNIT {DDF2C7F4-C32C-4196-A162-88D0BC0AA6E5},THERMAL ZONE 13,1,1
 Zone Equipment List,18,ZONE HVAC EQUIPMENT LIST 8,THERMAL ZONE 8,1
   Zone Equipment Component,1,ZONEHVAC:AIRDISTRIBUTIONUNIT,ZONEHVAC:AIRDISTRIBUTIONUNIT {F53FAAE1-F54D-4759-9C03-D8062F5D845D},THERMAL ZONE 8,1,1
 Zone Equipment List,19,ZONE HVAC EQUIPMENT LIST 21,THERMAL ZONE 21,1
   Zone Equipment Component,1,ZONEHVAC:AIRDISTRIBUTIONUNIT,ZONEHVAC:AIRDISTRIBUTIONUNIT {DAEB3336-4F64-4B1F-9C72-BE5AA7CE6517},THERMAL ZONE 21,1,1
 Zone Equipment List,20,ZONE HVAC EQUIPMENT LIST 19,THERMAL ZONE 19,1
   Zone Equipment Component,1,ZONEHVAC:AIRDISTRIBUTIONUNIT,ZONEHVAC:AIRDISTRIBUTIONUNIT {DFF934B9-F764-4196-82CA-E3261B4887B3},THERMAL ZONE 19,1,1
 Zone Equipment List,21,ZONE HVAC EQUIPMENT LIST 16,THERMAL ZONE 16,1
   Zone Equipment Component,1,ZONEHVAC:AIRDISTRIBUTIONUNIT,ZONEHVAC:AIRDISTRIBUTIONUNIT {C7FA9B46-4749-43C5-8C52-AEC9BAABC1FF},THERMAL ZONE 16,1,1
 Zone Equipment List,22,ZONE HVAC EQUIPMENT LIST 6,THERMAL ZONE 6,1
   Zone Equipment Component,1,ZONEHVAC:AIRDISTRIBUTIONUNIT,ZONEHVAC:AIRDISTRIBUTIONUNIT {18D76CF2-0208-4C57-A43D-1DD6EB0AE2B3},THERMAL ZONE 6,1,1
 Zone Equipment List,23,ZONE HVAC EQUIPMENT LIST 1,THERMAL ZONE 1,1
   Zone Equipment Component,1,ZONEHVAC:AIRDISTRIBUTIONUNIT,ZONEHVAC:AIRDISTRIBUTIONUNIT {D9DFEE51-62AC-499E-A692-7656A2A83678},THERMAL ZONE 1,1,1
 Zone Equipment List,24,ZONE HVAC EQUIPMENT LIST 2,THERMAL ZONE 2,1
   Zone Equipment Component,1,ZONEHVAC:AIRDISTRIBUTIONUNIT,ZONEHVAC:AIRDISTRIBUTIONUNIT {5633443A-0AA3-4F65-88E7-73A46BDA90B5},THERMAL ZONE 2,1,1
 Zone Equipment List,25,ZONE HVAC EQUIPMENT LIST 9,THERMAL ZONE 9,1
   Zone Equipment Component,1,ZONEHVAC:AIRDISTRIBUTIONUNIT,ZONEHVAC:AIRDISTRIBUTIONUNIT {1F694D0E-7AF0-4A6E-BC2B-A05497C37AB4},THERMAL ZONE 9,1,1
! ===============================================================
! <#Dual Duct Damper Connections>,<Number of Dual Duct Damper Connections>
 #Dual Duct Damper Connections,0
! <Dual Duct Damper>,<Dual Duct Damper Count>,<Dual Duct Damper Name>,<Inlet Node>,<Outlet Node>,<Inlet Node Type>,<AirLoopHVAC Name>
! ===============================================================
! <#AirLoopHVACs>,<Number of AirLoopHVACs>
 #AirLoopHVACs,1
! <AirLoopHVAC>,<Air Loop Name>,<# Return Nodes>,<# Supply Nodes>,<# Zones Cooled>,<# Zones Heated>,<Outdoor Air Used>
! <AirLoop Return Connections>,<Connection Count>,<AirLoopHVAC Name>,<Zn Eqp Return Node #>,<Zn Eqp Return Node Name>,<AirLoop Return Node #>,<Air Loop Return Node Name>
! <AirLoop Supply Connections>,<Connection Count>,<AirLoopHVAC Name>,<Zn Eqp Supply Node #>,<Zn Eqp Supply Node Name>,<AirLoop Supply Node #>,<Air Loop Supply Node Name>
! <Cooled Zone Info>,<Cooled Zone Count>,<Cooled Zone Name>,<Cooled Zone Inlet Node #>,<Cooled Zone Inlet Node Name>,<AirLoopHVAC Name>
! <Heated Zone Info>,<Heated Zone Count>,<Heated Zone Name>,<Heated Zone Inlet Node #>,<Heated Zone Inlet Node Name>,<AirLoopHVAC Name>
! <Outdoor Air Connections>,<OA Inlet Node #>,<OA Return Air Inlet Node Name>,<OA Outlet Node #>,<OA Mixed Air Outlet Node Name>,<AirLoopHVAC Name>
! <AirLoopHVAC Connector>,<Connector Type>,<Connector Name>,<Loop Name>,<Loop Type>,<Number of Inlets/Outlets>
! <AirLoopHVAC Connector Branches>,<Connector Node Count>,<Connector Type>,<Connector Name>,<Inlet Branch>,<Outlet Branch>,<Loop Name>,<Loop Type>
! <AirLoopHVAC Connector Nodes>,<Connector Node Count>,<Connector Type>,<Connector Name>,<Inlet Node>,<Outlet Node>,<Loop Name>,<Loop Type>
 AirLoopHVAC,AIR LOOP HVAC 1,1,1,25,0,Yes
   AirLoop Return Connections,1,AIR LOOP HVAC 1,149,NODE 29,26,NODE 26
   AirLoop Supply Connections,1,AIR LOOP HVAC 1,148,NODE 28,30,NODE 27
   Cooled Zone Info,1,THERMAL ZONE 20,16,NODE 30,AIR LOOP HVAC 1
   Cooled Zone Info,2,THERMAL ZONE 14,4,NODE 52,AIR LOOP HVAC 1
   Cooled Zone Info,3,THERMAL ZONE 7,2,NODE 57,AIR LOOP HVAC 1
   Cooled Zone Info,4,THERMAL ZONE 15,9,NODE 62,AIR LOOP HVAC 1
   Cooled Zone Info,5,THERMAL ZONE 6,22,NODE 67,AIR LOOP HVAC 1
   Cooled Zone Info,6,THERMAL ZONE 23,13,NODE 72,AIR LOOP HVAC 1
   Cooled Zone Info,7,THERMAL ZONE 3,15,NODE 77,AIR LOOP HVAC 1
   Cooled Zone Info,8,THERMAL ZONE 13,17,NODE 82,AIR LOOP HVAC 1
   Cooled Zone Info,9,THERMAL ZONE 8,18,NODE 87,AIR LOOP HVAC 1
   Cooled Zone Info,10,THERMAL ZONE 5,3,NODE 92,AIR LOOP HVAC 1
   Cooled Zone Info,11,THERMAL ZONE 9,25,NODE 97,AIR LOOP HVAC 1
   Cooled Zone Info,12,THERMAL ZONE 11,1,NODE 102,AIR LOOP HVAC 1
   Cooled Zone Info,13,THERMAL ZONE 18,7,NODE 107,AIR LOOP HVAC 1
   Cooled Zone Info,14,THERMAL ZONE 4,8,NODE 112,AIR LOOP HVAC 1
   Cooled Zone Info,15,THERMAL ZONE 21,19,NODE 117,AIR LOOP HVAC 1
   Cooled Zone Info,16,THERMAL ZONE 16,21,NODE 122,AIR LOOP HVAC 1
   Cooled Zone Info,17,THERMAL ZONE 24,5,NODE 127,AIR LOOP HVAC 1
   Cooled Zone Info,18,THERMAL ZONE 1,23,NODE 132,AIR LOOP HVAC 1
   Cooled Zone Info,19,THERMAL ZONE 19,20,NODE 137,AIR LOOP HVAC 1
   Cooled Zone Info,20,THERMAL ZONE 17,11,NODE 142,AIR LOOP HVAC 1
   Cooled Zone Info,21,THERMAL ZONE 10,10,NODE 147,AIR LOOP HVAC 1
   Cooled Zone Info,22,THERMAL ZONE 25,12,NODE 152,AIR LOOP HVAC 1
   Cooled Zone Info,23,THERMAL ZONE 12,14,NODE 157,AIR LOOP HVAC 1
   Cooled Zone Info,24,THERMAL ZONE 2,24,NODE 162,AIR LOOP HVAC 1
   Cooled Zone Info,25,THERMAL ZONE 22,6,NODE 167,AIR LOOP HVAC 1
   Outdoor Air Connections,26,NODE 26,27,NODE 33,AIR LOOP HVAC 1
! ===============================================================
! <#Parent Node Connections>,<Number of Parent Node Connections>
 #Parent Node Connections,135
! <Parent Node Connection>,<Node Name>,<Node ObjectType>,<Node ObjectName>,<Node ConnectionType>,<Node FluidStream>
 Parent Node Connection,NODE 26,BRANCH,BRANCH {8DB99AD4-032B-4622-96DA-824D4F268BB7},Inlet,1
 Parent Node Connection,NODE 33,BRANCH,BRANCH {8DB99AD4-032B-4622-96DA-824D4F268BB7},Internal,1
 Parent Node Connection,NODE 34,BRANCH,BRANCH {8DB99AD4-032B-4622-96DA-824D4F268BB7},Internal,1
 Parent Node Connection,NODE 35,BRANCH,BRANCH {8DB99AD4-032B-4622-96DA-824D4F268BB7},Internal,1
 Parent Node Connection,NODE 27,BRANCH,BRANCH {8DB99AD4-032B-4622-96DA-824D4F268BB7},Outlet,1
 Parent Node Connection,NODE 36,BRANCH,PLANT LOOP 1 SUPPLY INLET BRANCH,Inlet,1
 Parent Node Connection,NODE 42,BRANCH,PLANT LOOP 1 SUPPLY INLET BRANCH,Outlet,1
 Parent Node Connection,NODE 38,BRANCH,PLANT LOOP 1 SUPPLY BRANCH 1,Inlet,1
 Parent Node Connection,NODE 43,BRANCH,PLANT LOOP 1 SUPPLY BRANCH 1,Outlet,1
 Parent Node Connection,NODE 44,BRANCH,PLANT LOOP 1 SUPPLY BRANCH 2,Inlet,1
 Parent Node Connection,NODE 45,BRANCH,PLANT LOOP 1 SUPPLY BRANCH 2,Outlet,1
 Parent Node Connection,NODE 46,BRANCH,PLANT LOOP 1 SUPPLY OUTLET BRANCH,Inlet,1
 Parent Node Connection,NODE 37,BRANCH,PLANT LOOP 1 SUPPLY OUTLET BRANCH,Outlet,1
 Parent Node Connection,NODE 39,BRANCH,PLANT LOOP 1 DEMAND INLET BRANCH,Inlet,1
 Parent Node Connection,PLANT LOOP 1 DEMAND INLET PIPE NODE,BRANCH,PLANT LOOP 1 DEMAND INLET BRANCH,Outlet,1
 Parent Node Connection,NODE 41,BRANCH,PLANT LOOP 1 DEMAND BRANCH 1,Inlet,1
 Parent Node Connection,NODE 47,BRANCH,PLANT LOOP 1 DEMAND BRANCH 1,Outlet,1
 Parent Node Connection,NODE 50,BRANCH,PLANT LOOP 1 DEMAND BRANCH 2,Inlet,1
 Parent Node Connection,NODE 51,BRANCH,PLANT LOOP 1 DEMAND BRANCH 2,Outlet,1
 Parent Node Connection,NODE 55,BRANCH,PLANT LOOP 1 DEMAND BRANCH 3,Inlet,1
 Parent Node Connection,NODE 56,BRANCH,PLANT LOOP 1 DEMAND BRANCH 3,Outlet,1
 Parent Node Connection,NODE 60,BRANCH,PLANT LOOP 1 DEMAND BRANCH 4,Inlet,1
 Parent Node Connection,NODE 61,BRANCH,PLANT LOOP 1 DEMAND BRANCH 4,Outlet,1
 Parent Node Connection,NODE 65,BRANCH,PLANT LOOP 1 DEMAND BRANCH 5,Inlet,1
 Parent Node Connection,NODE 66,BRANCH,PLANT LOOP 1 DEMAND BRANCH 5,Outlet,1
 Parent Node Connection,NODE 70,BRANCH,PLANT LOOP 1 DEMAND BRANCH 6,Inlet,1
 Parent Node Connection,NODE 71,BRANCH,PLANT LOOP 1 DEMAND BRANCH 6,Outlet,1
 Parent Node Connection,NODE 75,BRANCH,PLANT LOOP 1 DEMAND BRANCH 7,Inlet,1
 Parent Node Connection,NODE 76,BRANCH,PLANT LOOP 1 DEMAND BRANCH 7,Outlet,1
 Parent Node Connection,NODE 80,BRANCH,PLANT LOOP 1 DEMAND BRANCH 8,Inlet,1
 Parent Node Connection,NODE 81,BRANCH,PLANT LOOP 1 DEMAND BRANCH 8,Outlet,1
 Parent Node Connection,NODE 85,BRANCH,PLANT LOOP 1 DEMAND BRANCH 9,Inlet,1
 Parent Node Connection,NODE 86,BRANCH,PLANT LOOP 1 DEMAND BRANCH 9,Outlet,1
 Parent Node Connection,NODE 90,BRANCH,PLANT LOOP 1 DEMAND BRANCH 10,Inlet,1
 Parent Node Connection,NODE 91,BRANCH,PLANT LOOP 1 DEMAND BRANCH 10,Outlet,1
 Parent Node Connection,NODE 95,BRANCH,PLANT LOOP 1 DEMAND BRANCH 11,Inlet,1
 Parent Node Connection,NODE 96,BRANCH,PLANT LOOP 1 DEMAND BRANCH 11,Outlet,1
 Parent Node Connection,NODE 100,BRANCH,PLANT LOOP 1 DEMAND BRANCH 12,Inlet,1
 Parent Node Connection,NODE 101,BRANCH,PLANT LOOP 1 DEMAND BRANCH 12,Outlet,1
 Parent Node Connection,NODE 105,BRANCH,PLANT LOOP 1 DEMAND BRANCH 13,Inlet,1
 Parent Node Connection,NODE 106,BRANCH,PLANT LOOP 1 DEMAND BRANCH 13,Outlet,1
 Parent Node Connection,NODE 110,BRANCH,PLANT LOOP 1 DEMAND BRANCH 14,Inlet,1
 Parent Node Connection,NODE 111,BRANCH,PLANT LOOP 1 DEMAND BRANCH 14,Outlet,1
 Parent Node Connection,NODE 115,BRANCH,PLANT LOOP 1 DEMAND BRANCH 15,Inlet,1
 Parent Node Connection,NODE 116,BRANCH,PLANT LOOP 1 DEMAND BRANCH 15,Outlet,1
 Parent Node Connection,NODE 120,BRANCH,PLANT LOOP 1 DEMAND BRANCH 16,Inlet,1
 Parent Node Connection,NODE 121,BRANCH,PLANT LOOP 1 DEMAND BRANCH 16,Outlet,1
 Parent Node Connection,NODE 125,BRANCH,PLANT LOOP 1 DEMAND BRANCH 17,Inlet,1
 Parent Node Connection,NODE 126,BRANCH,PLANT LOOP 1 DEMAND BRANCH 17,Outlet,1
 Parent Node Connection,NODE 130,BRANCH,PLANT LOOP 1 DEMAND BRANCH 18,Inlet,1
 Parent Node Connection,NODE 131,BRANCH,PLANT LOOP 1 DEMAND BRANCH 18,Outlet,1
 Parent Node Connection,NODE 135,BRANCH,PLANT LOOP 1 DEMAND BRANCH 19,Inlet,1
 Parent Node Connection,NODE 136,BRANCH,PLANT LOOP 1 DEMAND BRANCH 19,Outlet,1
 Parent Node Connection,NODE 140,BRANCH,PLANT LOOP 1 DEMAND BRANCH 20,Inlet,1
 Parent Node Connection,NODE 141,BRANCH,PLANT LOOP 1 DEMAND BRANCH 20,Outlet,1
 Parent Node Connection,NODE 145,BRANCH,PLANT LOOP 1 DEMAND BRANCH 21,Inlet,1
 Parent Node Connection,NODE 146,BRANCH,PLANT LOOP 1 DEMAND BRANCH 21,Outlet,1
 Parent Node Connection,NODE 150,BRANCH,PLANT LOOP 1 DEMAND BRANCH 22,Inlet,1
 Parent Node Connection,NODE 151,BRANCH,PLANT LOOP 1 DEMAND BRANCH 22,Outlet,1
 Parent Node Connection,NODE 155,BRANCH,PLANT LOOP 1 DEMAND BRANCH 23,Inlet,1
 Parent Node Connection,NODE 156,BRANCH,PLANT LOOP 1 DEMAND BRANCH 23,Outlet,1
 Parent Node Connection,NODE 160,BRANCH,PLANT LOOP 1 DEMAND BRANCH 24,Inlet,1
 Parent Node Connection,NODE 161,BRANCH,PLANT LOOP 1 DEMAND BRANCH 24,Outlet,1
 Parent Node Connection,NODE 165,BRANCH,PLANT LOOP 1 DEMAND BRANCH 25,Inlet,1
 Parent Node Connection,NODE 166,BRANCH,PLANT LOOP 1 DEMAND BRANCH 25,Outlet,1
 Parent Node Connection,NODE 170,BRANCH,PLANT LOOP 1 DEMAND BRANCH 26,Inlet,1
 Parent Node Connection,NODE 171,BRANCH,PLANT LOOP 1 DEMAND BRANCH 26,Outlet,1
 Parent Node Connection,PLANT LOOP 1 DEMAND BYPASS PIPE INLET NODE,BRANCH,PLANT LOOP 1 DEMAND BYPASS BRANCH,Inlet,1
 Parent Node Connection,PLANT LOOP 1 DEMAND BYPASS PIPE OUTLET NODE,BRANCH,PLANT LOOP 1 DEMAND BYPASS BRANCH,Outlet,1
 Parent Node Connection,PLANT LOOP 1 DEMAND OUTLET PIPE NODE,BRANCH,PLANT LOOP 1 DEMAND OUTLET BRANCH,Inlet,1
 Parent Node Connection,NODE 40,BRANCH,PLANT LOOP 1 DEMAND OUTLET BRANCH,Outlet,1
 Parent Node Connection,NODE 36,PLANTLOOP,PLANT LOOP 1,Inlet,1
 Parent Node Connection,NODE 37,PLANTLOOP,PLANT LOOP 1,Outlet,1
 Parent Node Connection,NODE 39,PLANTLOOP,PLANT LOOP 1,Inlet,1
 Parent Node Connection,NODE 40,PLANTLOOP,PLANT LOOP 1,Outlet,1
 Parent Node Connection,NODE 37,PLANTLOOP,PLANT LOOP 1,Sensor,1
 Parent Node Connection,NODE 28,AIRLOOPHVAC:SUPPLYPATH,AIRLOOPHVAC:SUPPLYPATH {6385DC5D-012A-428B-BB57-5167F42B3567},Inlet,1
 Parent Node Connection,NODE 29,AIRLOOPHVAC:RETURNPATH,AIRLOOPHVAC:RETURNPATH {3AD6CF0B-573C-4DE9-AC17-72C53B4AC563},Outlet,1
 Parent Node Connection,NODE 30,ZONEHVAC:AIRDISTRIBUTIONUNIT,ZONEHVAC:AIRDISTRIBUTIONUNIT {B89F2D7F-1E8C-470D-9CF7-31002BAAE9F1},Outlet,1
 Parent Node Connection,NODE 52,ZONEHVAC:AIRDISTRIBUTIONUNIT,ZONEHVAC:AIRDISTRIBUTIONUNIT {24A2FA5A-86B6-4246-B787-1C6AD584FAD6},Outlet,1
 Parent Node Connection,NODE 57,ZONEHVAC:AIRDISTRIBUTIONUNIT,ZONEHVAC:AIRDISTRIBUTIONUNIT {0EAF8232-9393-432D-AAF7-62A084F07DDD},Outlet,1
 Parent Node Connection,NODE 62,ZONEHVAC:AIRDISTRIBUTIONUNIT,ZONEHVAC:AIRDISTRIBUTIONUNIT {84D4137A-5D5E-403A-ACA1-AA736FD9D296},Outlet,1
 Parent Node Connection,NODE 67,ZONEHVAC:AIRDISTRIBUTIONUNIT,ZONEHVAC:AIRDISTRIBUTIONUNIT {18D76CF2-0208-4C57-A43D-1DD6EB0AE2B3},Outlet,1
 Parent Node Connection,NODE 72,ZONEHVAC:AIRDISTRIBUTIONUNIT,ZONEHVAC:AIRDISTRIBUTIONUNIT {8F07469E-F4BD-4AE4-9FC5-AB81C99FCF60},Outlet,1
 Parent Node Connection,NODE 77,ZONEHVAC:AIRDISTRIBUTIONUNIT,ZONEHVAC:AIRDISTRIBUTIONUNIT {B5A2144C-646C-4726-80CB-6DF011E65A28},Outlet,1
 Parent Node Connection,NODE 82,ZONEHVAC:AIRDISTRIBUTIONUNIT,ZONEHVAC:AIRDISTRIBUTIONUNIT {DDF2C7F4-C32C-4196-A162-88D0BC0AA6E5},Outlet,1
[...]
 Non-Parent Node Connection,NODE 71,COIL:HEATING:WATER,COIL HEATING WATER 7,Outlet,2
 Non-Parent Node Connection,AIR TERMINAL SINGLE DUCT VAV REHEAT 6 DAMPER OUTLET,COIL:HEATING:WATER,COIL HEATING WATER 7,Inlet,1
 Non-Parent Node Connection,NODE 67,COIL:HEATING:WATER,COIL HEATING WATER 7,Outlet,1
 Non-Parent Node Connection,NODE 75,COIL:HEATING:WATER,COIL HEATING WATER 8,Inlet,2
 Non-Parent Node Connection,NODE 76,COIL:HEATING:WATER,COIL HEATING WATER 8,Outlet,2
 Non-Parent Node Connection,AIR TERMINAL SINGLE DUCT VAV REHEAT 7 DAMPER OUTLET,COIL:HEATING:WATER,COIL HEATING WATER 8,Inlet,1
 Non-Parent Node Connection,NODE 72,COIL:HEATING:WATER,COIL HEATING WATER 8,Outlet,1
 Non-Parent Node Connection,NODE 80,COIL:HEATING:WATER,COIL HEATING WATER 9,Inlet,2
 Non-Parent Node Connection,NODE 81,COIL:HEATING:WATER,COIL HEATING WATER 9,Outlet,2
 Non-Parent Node Connection,AIR TERMINAL SINGLE DUCT VAV REHEAT 8 DAMPER OUTLET,COIL:HEATING:WATER,COIL HEATING WATER 9,Inlet,1
 Non-Parent Node Connection,NODE 77,COIL:HEATING:WATER,COIL HEATING WATER 9,Outlet,1
 Non-Parent Node Connection,NODE 85,COIL:HEATING:WATER,COIL HEATING WATER 10,Inlet,2
 Non-Parent Node Connection,NODE 86,COIL:HEATING:WATER,COIL HEATING WATER 10,Outlet,2
 Non-Parent Node Connection,AIR TERMINAL SINGLE DUCT VAV REHEAT 9 DAMPER OUTLET,COIL:HEATING:WATER,COIL HEATING WATER 10,Inlet,1
 Non-Parent Node Connection,NODE 82,COIL:HEATING:WATER,COIL HEATING WATER 10,Outlet,1
 Non-Parent Node Connection,NODE 90,COIL:HEATING:WATER,COIL HEATING WATER 11,Inlet,2
 Non-Parent Node Connection,NODE 91,COIL:HEATING:WATER,COIL HEATING WATER 11,Outlet,2
 Non-Parent Node Connection,AIR TERMINAL SINGLE DUCT VAV REHEAT 10 DAMPER OUTLET,COIL:HEATING:WATER,COIL HEATING WATER 11,Inlet,1
 Non-Parent Node Connection,NODE 87,COIL:HEATING:WATER,COIL HEATING WATER 11,Outlet,1
 Non-Parent Node Connection,NODE 95,COIL:HEATING:WATER,COIL HEATING WATER 12,Inlet,2
 Non-Parent Node Connection,NODE 96,COIL:HEATING:WATER,COIL HEATING WATER 12,Outlet,2
 Non-Parent Node Connection,AIR TERMINAL SINGLE DUCT VAV REHEAT 11 DAMPER OUTLET,COIL:HEATING:WATER,COIL HEATING WATER 12,Inlet,1
 Non-Parent Node Connection,NODE 92,COIL:HEATING:WATER,COIL HEATING WATER 12,Outlet,1
 Non-Parent Node Connection,NODE 100,COIL:HEATING:WATER,COIL HEATING WATER 13,Inlet,2
 Non-Parent Node Connection,NODE 101,COIL:HEATING:WATER,COIL HEATING WATER 13,Outlet,2
 Non-Parent Node Connection,AIR TERMINAL SINGLE DUCT VAV REHEAT 12 DAMPER OUTLET,COIL:HEATING:WATER,COIL HEATING WATER 13,Inlet,1
 Non-Parent Node Connection,NODE 97,COIL:HEATING:WATER,COIL HEATING WATER 13,Outlet,1
 Non-Parent Node Connection,NODE 105,COIL:HEATING:WATER,COIL HEATING WATER 14,Inlet,2
 Non-Parent Node Connection,NODE 106,COIL:HEATING:WATER,COIL HEATING WATER 14,Outlet,2
 Non-Parent Node Connection,AIR TERMINAL SINGLE DUCT VAV REHEAT 13 DAMPER OUTLET,COIL:HEATING:WATER,COIL HEATING WATER 14,Inlet,1
 Non-Parent Node Connection,NODE 102,COIL:HEATING:WATER,COIL HEATING WATER 14,Outlet,1
 Non-Parent Node Connection,NODE 110,COIL:HEATING:WATER,COIL HEATING WATER 15,Inlet,2
 Non-Parent Node Connection,NODE 111,COIL:HEATING:WATER,COIL HEATING WATER 15,Outlet,2
 Non-Parent Node Connection,AIR TERMINAL SINGLE DUCT VAV REHEAT 14 DAMPER OUTLET,COIL:HEATING:WATER,COIL HEATING WATER 15,Inlet,1
 Non-Parent Node Connection,NODE 107,COIL:HEATING:WATER,COIL HEATING WATER 15,Outlet,1
 Non-Parent Node Connection,NODE 115,COIL:HEATING:WATER,COIL HEATING WATER 16,Inlet,2
 Non-Parent Node Connection,NODE 116,COIL:HEATING:WATER,COIL HEATING WATER 16,Outlet,2
 Non-Parent Node Connection,AIR TERMINAL SINGLE DUCT VAV REHEAT 15 DAMPER OUTLET,COIL:HEATING:WATER,COIL HEATING WATER 16,Inlet,1
 Non-Parent Node Connection,NODE 112,COIL:HEATING:WATER,COIL HEATING WATER 16,Outlet,1
 Non-Parent Node Connection,NODE 120,COIL:HEATING:WATER,COIL HEATING WATER 17,Inlet,2
 Non-Parent Node Connection,NODE 121,COIL:HEATING:WATER,COIL HEATING WATER 17,Outlet,2
 Non-Parent Node Connection,AIR TERMINAL SINGLE DUCT VAV REHEAT 16 DAMPER OUTLET,COIL:HEATING:WATER,COIL HEATING WATER 17,Inlet,1
 Non-Parent Node Connection,NODE 117,COIL:HEATING:WATER,COIL HEATING WATER 17,Outlet,1
 Non-Parent Node Connection,NODE 125,COIL:HEATING:WATER,COIL HEATING WATER 18,Inlet,2
 Non-Parent Node Connection,NODE 126,COIL:HEATING:WATER,COIL HEATING WATER 18,Outlet,2
 Non-Parent Node Connection,AIR TERMINAL SINGLE DUCT VAV REHEAT 17 DAMPER OUTLET,COIL:HEATING:WATER,COIL HEATING WATER 18,Inlet,1
 Non-Parent Node Connection,NODE 122,COIL:HEATING:WATER,COIL HEATING WATER 18,Outlet,1
 Non-Parent Node Connection,NODE 130,COIL:HEATING:WATER,COIL HEATING WATER 19,Inlet,2
 Non-Parent Node Connection,NODE 131,COIL:HEATING:WATER,COIL HEATING WATER 19,Outlet,2
 Non-Parent Node Connection,AIR TERMINAL SINGLE DUCT VAV REHEAT 18 DAMPER OUTLET,COIL:HEATING:WATER,COIL HEATING WATER 19,Inlet,1
 Non-Parent Node Connection,NODE 127,COIL:HEATING:WATER,COIL HEATING WATER 19,Outlet,1
 Non-Parent Node Connection,NODE 135,COIL:HEATING:WATER,COIL HEATING WATER 20,Inlet,2
 Non-Parent Node Connection,NODE 136,COIL:HEATING:WATER,COIL HEATING WATER 20,Outlet,2
 Non-Parent Node Connection,AIR TERMINAL SINGLE DUCT VAV REHEAT 19 DAMPER OUTLET,COIL:HEATING:WATER,COIL HEATING WATER 20,Inlet,1
 Non-Parent Node Connection,NODE 132,COIL:HEATING:WATER,COIL HEATING WATER 20,Outlet,1
 Non-Parent Node Connection,NODE 140,COIL:HEATING:WATER,COIL HEATING WATER 21,Inlet,2
 Non-Parent Node Connection,NODE 141,COIL:HEATING:WATER,COIL HEATING WATER 21,Outlet,2
 Non-Parent Node Connection,AIR TERMINAL SINGLE DUCT VAV REHEAT 20 DAMPER OUTLET,COIL:HEATING:WATER,COIL HEATING WATER 21,Inlet,1
 Non-Parent Node Connection,NODE 137,COIL:HEATING:WATER,COIL HEATING WATER 21,Outlet,1
 Non-Parent Node Connection,NODE 145,COIL:HEATING:WATER,COIL HEATING WATER 22,Inlet,2
 Non-Parent Node Connection,NODE 146,COIL:HEATING:WATER,COIL HEATING WATER 22,Outlet,2
 Non-Parent Node Connection,AIR TERMINAL SINGLE DUCT VAV REHEAT 21 DAMPER OUTLET,COIL:HEATING:WATER,COIL HEATING WATER 22,Inlet,1
 Non-Parent Node Connection,NODE 142,COIL:HEATING:WATER,COIL HEATING WATER 22,Outlet,1
 Non-Parent Node Connection,NODE 150,COIL:HEATING:WATER,COIL HEATING WATER 23,Inlet,2
 Non-Parent Node Connection,NODE 151,COIL:HEATING:WATER,COIL HEATING WATER 23,Outlet,2
 Non-Parent Node Connection,AIR TERMINAL SINGLE DUCT VAV REHEAT 22 DAMPER OUTLET,COIL:HEATING:WATER,COIL HEATING WATER 23,Inlet,1
 Non-Parent Node Connection,NODE 147,COIL:HEATING:WATER,COIL HEATING WATER 23,Outlet,1
 Non-Parent Node Connection,NODE 155,COIL:HEATING:WATER,COIL HEATING WATER 24,Inlet,2
 Non-Parent Node Connection,NODE 156,COIL:HEATING:WATER,COIL HEATING WATER 24,Outlet,2
 Non-Parent Node Connection,AIR TERMINAL SINGLE DUCT VAV REHEAT 23 DAMPER OUTLET,COIL:HEATING:WATER,COIL HEATING WATER 24,Inlet,1
 Non-Parent Node Connection,NODE 152,COIL:HEATING:WATER,COIL HEATING WATER 24,Outlet,1
 Non-Parent Node Connection,NODE 160,COIL:HEATING:WATER,COIL HEATING WATER 25,Inlet,2
 Non-Parent Node Connection,NODE 161,COIL:HEATING:WATER,COIL HEATING WATER 25,Outlet,2
 Non-Parent Node Connection,AIR TERMINAL SINGLE DUCT VAV REHEAT 24 DAMPER OUTLET,COIL:HEATING:WATER,COIL HEATING WATER 25,Inlet,1
 Non-Parent Node Connection,NODE 157,COIL:HEATING:WATER,COIL HEATING WATER 25,Outlet,1
 Non-Parent Node Connection,NODE 165,COIL:HEATING:WATER,COIL HEATING WATER 26,Inlet,2
 Non-Parent Node Connection,NODE 166,COIL:HEATING:WATER,COIL HEATING WATER 26,Outlet,2
 Non-Parent Node Connection,AIR TERMINAL SINGLE DUCT VAV REHEAT 25 DAMPER OUTLET,COIL:HEATING:WATER,COIL HEATING WATER 26,Inlet,1
 Non-Parent Node Connection,NODE 162,COIL:HEATING:WATER,COIL HEATING WATER 26,Outlet,1
 Non-Parent Node Connection,NODE 170,COIL:HEATING:WATER,COIL HEATING WATER 27,Inlet,2
 Non-Parent Node Connection,NODE 171,COIL:HEATING:WATER,COIL HEATING WATER 27,Outlet,2
 Non-Parent Node Connection,AIR TERMINAL SINGLE DUCT VAV REHEAT 26 DAMPER OUTLET,COIL:HEATING:WATER,COIL HEATING WATER 27,Inlet,1
 Non-Parent Node Connection,NODE 167,COIL:HEATING:WATER,COIL HEATING WATER 27,Outlet,1
 Non-Parent Node Connection,AIR TERMINAL SINGLE DUCT VAV REHEAT 3 DAMPER OUTLET,AIRTERMINAL:SINGLEDUCT:VAV:REHEAT,AIR TERMINAL SINGLE DUCT VAV REHEAT 3,Outlet,1
 Non-Parent Node Connection,NODE 54,AIRTERMINAL:SINGLEDUCT:VAV:REHEAT,AIR TERMINAL SINGLE DUCT VAV REHEAT 3,Inlet,1
 Non-Parent Node Connection,AIR TERMINAL SINGLE DUCT VAV REHEAT 4 DAMPER OUTLET,AIRTERMINAL:SINGLEDUCT:VAV:REHEAT,AIR TERMINAL SINGLE DUCT VAV REHEAT 4,Outlet,1
 Non-Parent Node Connection,NODE 59,AIRTERMINAL:SINGLEDUCT:VAV:REHEAT,AIR TERMINAL SINGLE DUCT VAV REHEAT 4,Inlet,1
 Non-Parent Node Connection,AIR TERMINAL SINGLE DUCT VAV REHEAT 5 DAMPER OUTLET,AIRTERMINAL:SINGLEDUCT:VAV:REHEAT,AIR TERMINAL SINGLE DUCT VAV REHEAT 5,Outlet,1
 Non-Parent Node Connection,NODE 64,AIRTERMINAL:SINGLEDUCT:VAV:REHEAT,AIR TERMINAL SINGLE DUCT VAV REHEAT 5,Inlet,1
 Non-Parent Node Connection,AIR TERMINAL SINGLE DUCT VAV REHEAT 6 DAMPER OUTLET,AIRTERMINAL:SINGLEDUCT:VAV:REHEAT,AIR TERMINAL SINGLE DUCT VAV REHEAT 6,Outlet,1
 Non-Parent Node Connection,NODE 69,AIRTERMINAL:SINGLEDUCT:VAV:REHEAT,AIR TERMINAL SINGLE DUCT VAV REHEAT 6,Inlet,1
 Non-Parent Node Connection,AIR TERMINAL SINGLE DUCT VAV REHEAT 7 DAMPER OUTLET,AIRTERMINAL:SINGLEDUCT:VAV:REHEAT,AIR TERMINAL SINGLE DUCT VAV REHEAT 7,Outlet,1
 Non-Parent Node Connection,NODE 74,AIRTERMINAL:SINGLEDUCT:VAV:REHEAT,AIR TERMINAL SINGLE DUCT VAV REHEAT 7,Inlet,1
 Non-Parent Node Connection,AIR TERMINAL SINGLE DUCT VAV REHEAT 8 DAMPER OUTLET,AIRTERMINAL:SINGLEDUCT:VAV:REHEAT,AIR TERMINAL SINGLE DUCT VAV REHEAT 8,Outlet,1
 Non-Parent Node Connection,NODE 79,AIRTERMINAL:SINGLEDUCT:VAV:REHEAT,AIR TERMINAL SINGLE DUCT VAV REHEAT 8,Inlet,1
 Non-Parent Node Connection,AIR TERMINAL SINGLE DUCT VAV REHEAT 9 DAMPER OUTLET,AIRTERMINAL:SINGLEDUCT:VAV:REHEAT,AIR TERMINAL SINGLE DUCT VAV REHEAT 9,Outlet,1
 Non-Parent Node Connection,NODE 84,AIRTERMINAL:SINGLEDUCT:VAV:REHEAT,AIR TERMINAL SINGLE DUCT VAV REHEAT 9,Inlet,1
 Non-Parent Node Connection,AIR TERMINAL SINGLE DUCT VAV REHEAT 10 DAMPER OUTLET,AIRTERMINAL:SINGLEDUCT:VAV:REHEAT,AIR TERMINAL SINGLE DUCT VAV REHEAT 10,Outlet,1
 Non-Parent Node Connection,NODE 89,AIRTERMINAL:SINGLEDUCT:VAV:REHEAT,AIR TERMINAL SINGLE DUCT VAV REHEAT 10,Inlet,1
 Non-Parent Node Connection,AIR TERMINAL SINGLE DUCT VAV REHEAT 11 DAMPER OUTLET,AIRTERMINAL:SINGLEDUCT:VAV:REHEAT,AIR TERMINAL SINGLE DUCT VAV REHEAT 11,Outlet,1
 Non-Parent Node Connection,NODE 94,AIRTERMINAL:SINGLEDUCT:VAV:REHEAT,AIR TERMINAL SINGLE DUCT VAV REHEAT 11,Inlet,1
 Non-Parent Node Connection,AIR TERMINAL SINGLE DUCT VAV REHEAT 12 DAMPER OUTLET,AIRTERMINAL:SINGLEDUCT:VAV:REHEAT,AIR TERMINAL SINGLE DUCT VAV REHEAT 12,Outlet,1
 Non-Parent Node Connection,NODE 99,AIRTERMINAL:SINGLEDUCT:VAV:REHEAT,AIR TERMINAL SINGLE DUCT VAV REHEAT 12,Inlet,1
 Non-Parent Node Connection,AIR TERMINAL SINGLE DUCT VAV REHEAT 13 DAMPER OUTLET,AIRTERMINAL:SINGLEDUCT:VAV:REHEAT,AIR TERMINAL SINGLE DUCT VAV REHEAT 13,Outlet,1
 Non-Parent Node Connection,NODE 104,AIRTERMINAL:SINGLEDUCT:VAV:REHEAT,AIR TERMINAL SINGLE DUCT VAV REHEAT 13,Inlet,1
 Non-Parent Node Connection,AIR TERMINAL SINGLE DUCT VAV REHEAT 14 DAMPER OUTLET,AIRTERMINAL:SINGLEDUCT:VAV:REHEAT,AIR TERMINAL SINGLE DUCT VAV REHEAT 14,Outlet,1
 Non-Parent Node Connection,NODE 109,AIRTERMINAL:SINGLEDUCT:VAV:REHEAT,AIR TERMINAL SINGLE DUCT VAV REHEAT 14,Inlet,1
 Non-Parent Node Connection,AIR TERMINAL SINGLE DUCT VAV REHEAT 15 DAMPER OUTLET,AIRTERMINAL:SINGLEDUCT:VAV:REHEAT,AIR TERMINAL SINGLE DUCT VAV REHEAT 15,Outlet,1
 Non-Parent Node Connection,NODE 114,AIRTERMINAL:SINGLEDUCT:VAV:REHEAT,AIR TERMINAL SINGLE DUCT VAV REHEAT 15,Inlet,1
 Non-Parent Node Connection,AIR TERMINAL SINGLE DUCT VAV REHEAT 16 DAMPER OUTLET,AIRTERMINAL:SINGLEDUCT:VAV:REHEAT,AIR TERMINAL SINGLE DUCT VAV REHEAT 16,Outlet,1
 Non-Parent Node Connection,NODE 119,AIRTERMINAL:SINGLEDUCT:VAV:REHEAT,AIR TERMINAL SINGLE DUCT VAV REHEAT 16,Inlet,1
 Non-Parent Node Connection,AIR TERMINAL SINGLE DUCT VAV REHEAT 17 DAMPER OUTLET,AIRTERMINAL:SINGLEDUCT:VAV:REHEAT,AIR TERMINAL SINGLE DUCT VAV REHEAT 17,Outlet,1
 Non-Parent Node Connection,NODE 124,AIRTERMINAL:SINGLEDUCT:VAV:REHEAT,AIR TERMINAL SINGLE DUCT VAV REHEAT 17,Inlet,1
 Non-Parent Node Connection,AIR TERMINAL SINGLE DUCT VAV REHEAT 18 DAMPER OUTLET,AIRTERMINAL:SINGLEDUCT:VAV:REHEAT,AIR TERMINAL SINGLE DUCT VAV REHEAT 18,Outlet,1
 Non-Parent Node Connection,NODE 129,AIRTERMINAL:SINGLEDUCT:VAV:REHEAT,AIR TERMINAL SINGLE DUCT VAV REHEAT 18,Inlet,1
 Non-Parent Node Connection,AIR TERMINAL SINGLE DUCT VAV REHEAT 19 DAMPER OUTLET,AIRTERMINAL:SINGLEDUCT:VAV:REHEAT,AIR TERMINAL SINGLE DUCT VAV REHEAT 19,Outlet,1
 Non-Parent Node Connection,NODE 134,AIRTERMINAL:SINGLEDUCT:VAV:REHEAT,AIR TERMINAL SINGLE DUCT VAV REHEAT 19,Inlet,1
 Non-Parent Node Connection,AIR TERMINAL SINGLE DUCT VAV REHEAT 20 DAMPER OUTLET,AIRTERMINAL:SINGLEDUCT:VAV:REHEAT,AIR TERMINAL SINGLE DUCT VAV REHEAT 20,Outlet,1
 Non-Parent Node Connection,NODE 139,AIRTERMINAL:SINGLEDUCT:VAV:REHEAT,AIR TERMINAL SINGLE DUCT VAV REHEAT 20,Inlet,1
 Non-Parent Node Connection,AIR TERMINAL SINGLE DUCT VAV REHEAT 21 DAMPER OUTLET,AIRTERMINAL:SINGLEDUCT:VAV:REHEAT,AIR TERMINAL SINGLE DUCT VAV REHEAT 21,Outlet,1
 Non-Parent Node Connection,NODE 144,AIRTERMINAL:SINGLEDUCT:VAV:REHEAT,AIR TERMINAL SINGLE DUCT VAV REHEAT 21,Inlet,1
 Non-Parent Node Connection,AIR TERMINAL SINGLE DUCT VAV REHEAT 22 DAMPER OUTLET,AIRTERMINAL:SINGLEDUCT:VAV:REHEAT,AIR TERMINAL SINGLE DUCT VAV REHEAT 22,Outlet,1
 Non-Parent Node Connection,NODE 149,AIRTERMINAL:SINGLEDUCT:VAV:REHEAT,AIR TERMINAL SINGLE DUCT VAV REHEAT 22,Inlet,1
 Non-Parent Node Connection,AIR TERMINAL SINGLE DUCT VAV REHEAT 23 DAMPER OUTLET,AIRTERMINAL:SINGLEDUCT:VAV:REHEAT,AIR TERMINAL SINGLE DUCT VAV REHEAT 23,Outlet,1
 Non-Parent Node Connection,NODE 154,AIRTERMINAL:SINGLEDUCT:VAV:REHEAT,AIR TERMINAL SINGLE DUCT VAV REHEAT 23,Inlet,1
 Non-Parent Node Connection,AIR TERMINAL SINGLE DUCT VAV REHEAT 24 DAMPER OUTLET,AIRTERMINAL:SINGLEDUCT:VAV:REHEAT,AIR TERMINAL SINGLE DUCT VAV REHEAT 24,Outlet,1
 Non-Parent Node Connection,NODE 159,AIRTERMINAL:SINGLEDUCT:VAV:REHEAT,AIR TERMINAL SINGLE DUCT VAV REHEAT 24,Inlet,1
 Non-Parent Node Connection,AIR TERMINAL SINGLE DUCT VAV REHEAT 25 DAMPER OUTLET,AIRTERMINAL:SINGLEDUCT:VAV:REHEAT,AIR TERMINAL SINGLE DUCT VAV REHEAT 25,Outlet,1
 Non-Parent Node Connection,NODE 164,AIRTERMINAL:SINGLEDUCT:VAV:REHEAT,AIR TERMINAL SINGLE DUCT VAV REHEAT 25,Inlet,1
 Non-Parent Node Connection,AIR TERMINAL SINGLE DUCT VAV REHEAT 26 DAMPER OUTLET,AIRTERMINAL:SINGLEDUCT:VAV:REHEAT,AIR TERMINAL SINGLE DUCT VAV REHEAT 26,Outlet,1
 Non-Parent Node Connection,NODE 169,AIRTERMINAL:SINGLEDUCT:VAV:REHEAT,AIR TERMINAL SINGLE DUCT VAV REHEAT 26,Inlet,1
 Non-Parent Node Connection,NODE 29,AIRLOOPHVAC:ZONEMIXER,AIR LOOP HVAC ZONE MIXER 1,Outlet,1
 Non-Parent Node Connection,NODE 48,AIRLOOPHVAC:ZONEMIXER,AIR LOOP HVAC ZONE MIXER 1,Inlet,1
 Non-Parent Node Connection,NODE 53,AIRLOOPHVAC:ZONEMIXER,AIR LOOP HVAC ZONE MIXER 1,Inlet,1
 Non-Parent Node Connection,NODE 58,AIRLOOPHVAC:ZONEMIXER,AIR LOOP HVAC ZONE MIXER 1,Inlet,1
 Non-Parent Node Connection,NODE 63,AIRLOOPHVAC:ZONEMIXER,AIR LOOP HVAC ZONE MIXER 1,Inlet,1
 Non-Parent Node Connection,NODE 68,AIRLOOPHVAC:ZONEMIXER,AIR LOOP HVAC ZONE MIXER 1,Inlet,1
 Non-Parent Node Connection,NODE 73,AIRLOOPHVAC:ZONEMIXER,AIR LOOP HVAC ZONE MIXER 1,Inlet,1
 Non-Parent Node Connection,NODE 78,AIRLOOPHVAC:ZONEMIXER,AIR LOOP HVAC ZONE MIXER 1,Inlet,1
 Non-Parent Node Connection,NODE 83,AIRLOOPHVAC:ZONEMIXER,AIR LOOP HVAC ZONE MIXER 1,Inlet,1
 Non-Parent Node Connection,NODE 88,AIRLOOPHVAC:ZONEMIXER,AIR LOOP HVAC ZONE MIXER 1,Inlet,1
 Non-Parent Node Connection,NODE 93,AIRLOOPHVAC:ZONEMIXER,AIR LOOP HVAC ZONE MIXER 1,Inlet,1
 Non-Parent Node Connection,NODE 98,AIRLOOPHVAC:ZONEMIXER,AIR LOOP HVAC ZONE MIXER 1,Inlet,1
 Non-Parent Node Connection,NODE 103,AIRLOOPHVAC:ZONEMIXER,AIR LOOP HVAC ZONE MIXER 1,Inlet,1
 Non-Parent Node Connection,NODE 108,AIRLOOPHVAC:ZONEMIXER,AIR LOOP HVAC ZONE MIXER 1,Inlet,1
 Non-Parent Node Connection,NODE 113,AIRLOOPHVAC:ZONEMIXER,AIR LOOP HVAC ZONE MIXER 1,Inlet,1
 Non-Parent Node Connection,NODE 118,AIRLOOPHVAC:ZONEMIXER,AIR LOOP HVAC ZONE MIXER 1,Inlet,1
 Non-Parent Node Connection,NODE 123,AIRLOOPHVAC:ZONEMIXER,AIR LOOP HVAC ZONE MIXER 1,Inlet,1
 Non-Parent Node Connection,NODE 128,AIRLOOPHVAC:ZONEMIXER,AIR LOOP HVAC ZONE MIXER 1,Inlet,1
 Non-Parent Node Connection,NODE 133,AIRLOOPHVAC:ZONEMIXER,AIR LOOP HVAC ZONE MIXER 1,Inlet,1
 Non-Parent Node Connection,NODE 138,AIRLOOPHVAC:ZONEMIXER,AIR LOOP HVAC ZONE MIXER 1,Inlet,1
 Non-Parent Node Connection,NODE 143,AIRLOOPHVAC:ZONEMIXER,AIR LOOP HVAC ZONE MIXER 1,Inlet,1
 Non-Parent Node Connection,NODE 148,AIRLOOPHVAC:ZONEMIXER,AIR LOOP HVAC ZONE MIXER 1,Inlet,1
 Non-Parent Node Connection,NODE 153,AIRLOOPHVAC:ZONEMIXER,AIR LOOP HVAC ZONE MIXER 1,Inlet,1
 Non-Parent Node Connection,NODE 158,AIRLOOPHVAC:ZONEMIXER,AIR LOOP HVAC ZONE MIXER 1,Inlet,1
 Non-Parent Node Connection,NODE 163,AIRLOOPHVAC:ZONEMIXER,AIR LOOP HVAC ZONE MIXER 1,Inlet,1
 Non-Parent Node Connection,NODE 168,AIRLOOPHVAC:ZONEMIXER,AIR LOOP HVAC ZONE MIXER 1,Inlet,1
 Non-Parent Node Connection,NODE 33,OUTDOORAIR:MIXER,OUTDOORAIR:MIXER {0BC46581-61F1-40C4-96A9-67CD637B03B4},Outlet,1
 Non-Parent Node Connection,NODE 31,OUTDOORAIR:MIXER,OUTDOORAIR:MIXER {0BC46581-61F1-40C4-96A9-67CD637B03B4},Inlet,1
 Non-Parent Node Connection,NODE 32,OUTDOORAIR:MIXER,OUTDOORAIR:MIXER {0BC46581-61F1-40C4-96A9-67CD637B03B4},ReliefAir,1
 Non-Parent Node Connection,NODE 26,OUTDOORAIR:MIXER,OUTDOORAIR:MIXER {0BC46581-61F1-40C4-96A9-67CD637B03B4},Inlet,1
 Non-Parent Node Connection,NODE 35,CONTROLLER:WATERCOIL,CONTROLLER WATER COIL 1,Sensor,1
 Non-Parent Node Connection,NODE 41,CONTROLLER:WATERCOIL,CONTROLLER WATER COIL 1,Actuator,1
 Non-Parent Node Connection,NODE 33,CONTROLLER:OUTDOORAIR,CONTROLLER OUTDOOR AIR 1,Sensor,1
 Non-Parent Node Connection,NODE 31,CONTROLLER:OUTDOORAIR,CONTROLLER OUTDOOR AIR 1,Actuator,1
 Non-Parent Node Connection,NODE 32,CONTROLLER:OUTDOORAIR,CONTROLLER OUTDOOR AIR 1,Actuator,1
 Non-Parent Node Connection,NODE 26,CONTROLLER:OUTDOORAIR,CONTROLLER OUTDOOR AIR 1,Sensor,1
 Non-Parent Node Connection,NODE 33,COIL:COOLING:DX:TWOSPEED,COIL COOLING DX TWO SPEED 1,Inlet,1
 Non-Parent Node Connection,NODE 34,COIL:COOLING:DX:TWOSPEED,COIL COOLING DX TWO SPEED 1,Outlet,1
 Non-Parent Node Connection,NODE 35,FAN:VARIABLEVOLUME,FAN VARIABLE VOLUME 1,Inlet,1
 Non-Parent Node Connection,NODE 27,FAN:VARIABLEVOLUME,FAN VARIABLE VOLUME 1,Outlet,1
 Non-Parent Node Connection,NODE 44,PIPE:ADIABATIC,PIPE ADIABATIC 1,Inlet,1
 Non-Parent Node Connection,NODE 45,PIPE:ADIABATIC,PIPE ADIABATIC 1,Outlet,1
 Non-Parent Node Connection,NODE 46,PIPE:ADIABATIC,PIPE ADIABATIC 2,Inlet,1
 Non-Parent Node Connection,NODE 37,PIPE:ADIABATIC,PIPE ADIABATIC 2,Outlet,1
 Non-Parent Node Connection,NODE 39,PIPE:ADIABATIC,PLANT LOOP 1 DEMAND INLET PIPE,Inlet,1
 Non-Parent Node Connection,PLANT LOOP 1 DEMAND INLET PIPE NODE,PIPE:ADIABATIC,PLANT LOOP 1 DEMAND INLET PIPE,Outlet,1
 Non-Parent Node Connection,PLANT LOOP 1 DEMAND BYPASS PIPE INLET NODE,PIPE:ADIABATIC,PLANT LOOP 1 DEMAND BYPASS PIPE,Inlet,1
 Non-Parent Node Connection,PLANT LOOP 1 DEMAND BYPASS PIPE OUTLET NODE,PIPE:ADIABATIC,PLANT LOOP 1 DEMAND BYPASS PIPE,Outlet,1
 Non-Parent Node Connection,PLANT LOOP 1 DEMAND OUTLET PIPE NODE,PIPE:ADIABATIC,PLANT LOOP 1 DEMAND OUTLET PIPE,Inlet,1
 Non-Parent Node Connection,NODE 40,PIPE:ADIABATIC,PLANT LOOP 1 DEMAND OUTLET PIPE,Outlet,1
 Non-Parent Node Connection,NODE 38,BOILER:HOTWATER,BOILER HOT WATER 1,Inlet,1
 Non-Parent Node Connection,NODE 43,BOILER:HOTWATER,BOILER HOT WATER 1,Outlet,1
 Non-Parent Node Connection,NODE 36,PUMP:VARIABLESPEED,PUMP VARIABLE SPEED 1,Inlet,1
 Non-Parent Node Connection,NODE 42,PUMP:VARIABLESPEED,PUMP VARIABLE SPEED 1,Outlet,1
