Program Version,EnergyPlus-Linux-OMP-32 7.2.0.006, YMD=2013.06.20 03:37
! <Version>, Version ID
 Version, 7.2
! <Timesteps per Hour>, #TimeSteps, Minutes per TimeStep {minutes}
 Timesteps per Hour,  4, 15
! <System Convergence Limits>, Minimum System TimeStep {minutes}, Max HVAC Iterations,  Minimum Plant Iterations, Maximum Plant Iterations
 System Convergence Limits, 1, 20, 2, 8
! <Simulation Control>, Do Zone Sizing, Do System Sizing, Do Plant Sizing, Do Design Days, Do Weather Simulation
 Simulation Control, Yes, Yes, Yes, Yes, Yes
! <Output Reporting Tolerances>, Tolerance for Time Heating Setpoint Not Met, Tolerance for Time Cooling Setpoint Not Met
 Output Reporting Tolerances, 0.200, 0.200, 
! <Site:GroundTemperature:BuildingSurface>, Months From Jan to Dec {Deg C}
 Site:GroundTemperature:BuildingSurface,  18.00,  18.00,  18.00,  18.00,  18.00,  18.00,  18.00,  18.00,  18.00,  18.00,  18.00,  18.00
! <Site:GroundTemperature:FCfactorMethod>, Months From Jan to Dec {Deg C}
 Site:GroundTemperature:FCfactorMethod,   1.62,   0.54,   2.47,   5.49,  13.39,  19.49,  23.60,  24.85,  22.72,  17.98,  11.66,   5.79
! <Site:GroundTemperature:Shallow>, Months From Jan to Dec {Deg C}
 Site:GroundTemperature:Shallow,  13.00,  13.00,  13.00,  13.00,  13.00,  13.00,  13.00,  13.00,  13.00,  13.00,  13.00,  13.00
! <Site:GroundTemperature:Deep>, Months From Jan to Dec {Deg C}
 Site:GroundTemperature:Deep,  16.00,  16.00,  16.00,  16.00,  16.00,  16.00,  16.00,  16.00,  16.00,  16.00,  16.00,  16.00
! <Site:GroundReflectance>, Months From Jan to Dec {dimensionless}
 Site:GroundReflectance,  0.20,  0.20,  0.20,  0.20,  0.20,  0.20,  0.20,  0.20,  0.20,  0.20,  0.20,  0.20
! <Site:GroundReflectance:SnowModifier>, Normal, Daylighting {dimensionless}
 Site:GroundReflectance:SnowModifier,   1.000,   1.000
! <Site:GroundReflectance:Snow>, Months From Jan to Dec {dimensionless}
 Site:GroundReflectance:Snow,  0.20,  0.20,  0.20,  0.20,  0.20,  0.20,  0.20,  0.20,  0.20,  0.20,  0.20,  0.20
! <Site:GroundReflectance:Snow:Daylighting>, Months From Jan to Dec {dimensionless}
 Site:GroundReflectance:Snow:Daylighting,  0.20,  0.20,  0.20,  0.20,  0.20,  0.20,  0.20,  0.20,  0.20,  0.20,  0.20,  0.20
! <Environment:Weather Station>,Wind Sensor Height Above Ground {m},Wind Speed Profile Exponent {},Wind Speed Profile Boundary Layer Thickness {m},Air Temperature Sensor Height Above Ground {m},Wind Speed Modifier Coefficient [Internal],Temperature Modifier Coefficient [Internal]
Environment:Weather Station,10.000,0.140,270.000,1.500,1.586,9.750E-003
! <Site:Location>, Location Name, Latitude {N+/S- Deg}, Longitude {E+/W- Deg},  Time Zone Number {GMT+/-}, Elevation {m},  Standard Pressure at Elevation {Pa}, Standard RhoAir at Elevation
Site:Location,Philadelphia International Ap PA USA TMY3 WMO#=724080,39.87,-75.23,-5.00,2.00,101301,1.2040
! <Building Information>, Building Name,North Axis {deg},Terrain,  Loads Convergence Tolerance Value,Temperature Convergence Tolerance Value,  Solar Distribution,Maximum Number of Warmup Days,Minimum Number of Warmup Days
 Building Information,Building 1,0.000,Suburbs,4.00000E-002,0.40000,FullExterior,25,6
! <Inside Convection Algorithm>, Algorithm {Simple | TARP | CeilingDiffuser | AdaptiveConvectionAlgorithm}
Inside Convection Algorithm,TARP
! <Outside Convection Algorithm>, Algorithm {SimpleCombined | TARP | MoWitt | DOE-2 | AdaptiveConvectionAlgorithm}
Outside Convection Algorithm,DOE-2
! <Sky Radiance Distribution>, Value {Anisotropic}
Sky Radiance Distribution,Anisotropic
! <Zone Air Solution Algorithm>, Value {ThirdOrderBackwardDifference | AnalyticalSolution | EulerMethod}
 Zone Air Solution Algorithm, ThirdOrderBackwardDifference
! <Zone Air Contaminant Balance Simulation>, Simulation {Yes/No}, Carbon Dioxide Concentration
 Zone Air Carbon Dioxide Balance Simulation, No,N/A
! <Zone Air Contaminant Balance Simulation>, Simulation {Yes/No}, Generic Contaminant Concentration
 Zone Air Generic Contaminant Balance Simulation, No,N/A
! <Environment:Site Atmospheric Variation>,Wind Speed Profile Exponent {},Wind Speed Profile Boundary Layer Thickness {m},Air Temperature Gradient Coefficient {K/m}
Environment:Site Atmospheric Variation,0.220,370.000,6.500000E-003
! <SurfaceGeometry>,Starting Corner,Vertex Input Direction,Coordinate System,Daylight Reference Point Coordinate System,Rectangular (Simple) Surface Coordinate System
 Surface Geometry,UpperLeftCorner,Counterclockwise,RelativeCoordinateSystem,RelativeCoordinateSystem,RelativeToZoneOrigin
! <Surface Heat Transfer Algorithm>, Value {CTF - ConductionTransferFunction | EMPD - MoisturePenetrationDepthConductionTransferFunction | CondFD - ConductionFiniteDifference | HAMT - CombinedHeatAndMoistureFiniteElement} - Description,Inside Surface Max Temperature Limit{C}, Surface Convection Coefficient Lower Limit {W/m2-K}, Surface Convection Coefficient Upper Limit {W/m2-K}
Surface Heat Transfer Algorithm, CTF - ConductionTransferFunction,200,0.10,1000.0
! <Shading Summary>, Number of Fixed Detached Shades, Number of Building Detached Shades, Number of Attached Shades
 Shading Summary,0,0,0
! <Zone Summary>, Number of Zones, Number of Zone Surfaces, Number of SubSurfaces
 Zone Summary,25,170,20
! <Zone Information>,Zone Name,North Axis {deg},Origin X-Coordinate {m},Origin Y-Coordinate {m},Origin Z-Coordinate {m},Centroid X-Coordinate {m},Centroid Y-Coordinate {m},Centroid Z-Coordinate {m},Type,Zone Multiplier,Zone List Multiplier,Minimum X {m},Maximum X {m},Minimum Y {m},Maximum Y {m},Minimum Z {m},Maximum Z {m},Ceiling Height {m},Volume {m3},Zone Inside Convection Algorithm {Simple-Detailed-CeilingDiffuser-TrombeWall},Zone Outside Convection Algorithm {Simple-Detailed-Tarp-MoWitt-DOE-2-BLAST}, Floor Area {m2},Exterior Gross Wall Area {m2},Exterior Net Wall Area {m2},Exterior Window Area {m2}, Number of Surfaces, Number of SubSurfaces, Number of Shading SubSurfaces,  Part of Total Building Area
 Zone Information, THERMAL ZONE 11,0.0,3.00,7.00,0.00,5.00,8.84,2.00,1,1,1,0.00,10.00,7.00,10.00,0.00,4.00,4.00,84.00,TARP,DOE-2,21.00,40.00,32.00,8.00,6,1,0,Yes
 Zone Information, THERMAL ZONE 7,0.0,0.00,0.00,0.00,1.16,5.00,2.00,1,1,1,0.00,3.00,0.00,10.00,0.00,4.00,4.00,84.00,TARP,DOE-2,21.00,40.00,32.00,8.00,6,1,0,Yes
 Zone Information, THERMAL ZONE 5,0.0,3.00,7.00,12.00,5.00,8.84,14.00,1,1,1,0.00,10.00,7.00,10.00,12.00,16.00,4.00,84.00,TARP,DOE-2,21.00,40.00,32.00,8.00,6,1,0,Yes
 Zone Information, THERMAL ZONE 14,0.0,3.00,3.00,8.00,5.00,5.00,10.00,1,1,1,3.00,7.00,3.00,7.00,8.00,12.00,4.00,64.00,TARP,DOE-2,16.00,0.00,0.00,0.00,6,0,0,Yes
 Zone Information, THERMAL ZONE 24,0.0,0.00,0.00,4.00,1.16,5.00,6.00,1,1,1,0.00,3.00,0.00,10.00,4.00,8.00,4.00,84.00,TARP,DOE-2,21.00,40.00,32.00,8.00,6,1,0,Yes
 Zone Information, THERMAL ZONE 22,0.0,0.00,0.00,8.00,5.00,1.16,10.00,1,1,1,0.00,10.00,0.00,3.00,8.00,12.00,4.00,84.00,TARP,DOE-2,21.00,40.00,32.00,8.00,6,1,0,Yes
 Zone Information, THERMAL ZONE 18,0.0,0.00,0.00,12.00,5.00,1.16,14.00,1,1,1,0.00,10.00,0.00,3.00,12.00,16.00,4.00,84.00,TARP,DOE-2,21.00,40.00,32.00,8.00,6,1,0,Yes
 Zone Information, THERMAL ZONE 4,0.0,0.00,0.00,0.00,5.00,1.16,2.00,1,1,1,0.00,10.00,0.00,3.00,0.00,4.00,4.00,84.00,TARP,DOE-2,21.00,40.00,32.00,8.00,6,1,0,Yes
 Zone Information, THERMAL ZONE 15,0.0,3.00,3.00,12.00,5.00,5.00,14.00,1,1,1,3.00,7.00,3.00,7.00,12.00,16.00,4.00,64.00,TARP,DOE-2,16.00,0.00,0.00,0.00,6,0,0,Yes
 Zone Information, THERMAL ZONE 10,0.0,0.00,0.00,4.00,5.00,1.16,6.00,1,1,1,0.00,10.00,0.00,3.00,4.00,8.00,4.00,84.00,TARP,DOE-2,21.00,40.00,32.00,8.00,6,1,0,Yes
 Zone Information, THERMAL ZONE 17,0.0,3.00,7.00,16.00,5.00,8.84,18.00,1,1,1,0.00,10.00,7.00,10.00,16.00,20.00,4.00,84.00,TARP,DOE-2,21.00,40.00,32.00,8.00,6,1,0,Yes
 Zone Information, THERMAL ZONE 25,0.0,0.00,0.00,16.00,5.00,1.16,18.00,1,1,1,0.00,10.00,0.00,3.00,16.00,20.00,4.00,84.00,TARP,DOE-2,21.00,40.00,32.00,8.00,6,1,0,Yes
 Zone Information, THERMAL ZONE 23,0.0,7.00,3.00,0.00,8.84,5.00,2.00,1,1,1,7.00,10.00,0.00,10.00,0.00,4.00,4.00,84.00,TARP,DOE-2,21.00,40.00,32.00,8.00,6,1,0,Yes
 Zone Information, THERMAL ZONE 12,0.0,0.00,0.00,12.00,1.16,5.00,14.00,1,1,1,0.00,3.00,0.00,10.00,12.00,16.00,4.00,84.00,TARP,DOE-2,21.00,40.00,32.00,8.00,6,1,0,Yes
 Zone Information, THERMAL ZONE 3,0.0,7.00,3.00,8.00,8.84,5.00,10.00,1,1,1,7.00,10.00,0.00,10.00,8.00,12.00,4.00,84.00,TARP,DOE-2,21.00,40.00,32.00,8.00,6,1,0,Yes
 Zone Information, THERMAL ZONE 20,0.0,0.00,0.00,8.00,1.16,5.00,10.00,1,1,1,0.00,3.00,0.00,10.00,8.00,12.00,4.00,84.00,TARP,DOE-2,21.00,40.00,32.00,8.00,6,1,0,Yes
 Zone Information, THERMAL ZONE 13,0.0,3.00,3.00,0.00,5.00,5.00,2.00,1,1,1,3.00,7.00,3.00,7.00,0.00,4.00,4.00,64.00,TARP,DOE-2,16.00,0.00,0.00,0.00,6,0,0,Yes
 Zone Information, THERMAL ZONE 8,0.0,7.00,3.00,4.00,8.84,5.00,6.00,1,1,1,7.00,10.00,0.00,10.00,4.00,8.00,4.00,84.00,TARP,DOE-2,21.00,40.00,32.00,8.00,6,1,0,Yes
 Zone Information, THERMAL ZONE 21,0.0,3.00,3.00,4.00,5.00,5.00,6.00,1,1,1,3.00,7.00,3.00,7.00,4.00,8.00,4.00,64.00,TARP,DOE-2,16.00,0.00,0.00,0.00,6,0,0,Yes
 Zone Information, THERMAL ZONE 19,0.0,0.00,0.00,16.00,1.16,5.00,18.00,1,1,1,0.00,3.00,0.00,10.00,16.00,20.00,4.00,84.00,TARP,DOE-2,21.00,40.00,32.00,8.00,6,1,0,Yes
 Zone Information, THERMAL ZONE 16,0.0,3.00,7.00,4.00,5.00,8.84,6.00,1,1,1,0.00,10.00,7.00,10.00,4.00,8.00,4.00,84.00,TARP,DOE-2,21.00,40.00,32.00,8.00,6,1,0,Yes
 Zone Information, THERMAL ZONE 6,0.0,7.00,3.00,16.00,8.84,5.00,18.00,1,1,1,7.00,10.00,0.00,10.00,16.00,20.00,4.00,84.00,TARP,DOE-2,21.00,40.00,32.00,8.00,6,1,0,Yes
 Zone Information, THERMAL ZONE 1,0.0,3.00,7.00,8.00,5.00,8.84,10.00,1,1,1,0.00,10.00,7.00,10.00,8.00,12.00,4.00,84.00,TARP,DOE-2,21.00,40.00,32.00,8.00,6,1,0,Yes
 Zone Information, THERMAL ZONE 2,0.0,3.00,3.00,16.00,5.00,5.00,18.00,1,1,1,3.00,7.00,3.00,7.00,16.00,20.00,4.00,64.00,TARP,DOE-2,16.00,0.00,0.00,0.00,6,0,0,Yes
 Zone Information, THERMAL ZONE 9,0.0,7.00,3.00,12.00,8.84,5.00,14.00,1,1,1,7.00,10.00,0.00,10.00,12.00,16.00,4.00,84.00,TARP,DOE-2,21.00,40.00,32.00,8.00,6,1,0,Yes
! <Zone Internal Gains/Equipment Information - Nominal>,Zone Name, Floor Area {m2},# Occupants,Area per Occupant {m2/person},Occupant per Area {person/m2},Interior Lighting {W/m2},Electric Load {W/m2},Gas Load {W/m2},Other Load {W/m2},Hot Water Eq {W/m2},Steam Equipment {W/m2},Sum Loads per Area {W/m2},Outdoor Controlled Baseboard Heat
 Zone Internal Gains, THERMAL ZONE 11,21.00,0.0,N/A,0.000,0.000,0.000,0.000,0.000,0.000,0.000,0.000,No
 Zone Internal Gains, THERMAL ZONE 7,21.00,0.0,N/A,0.000,0.000,0.000,0.000,0.000,0.000,0.000,0.000,No
 Zone Internal Gains, THERMAL ZONE 5,21.00,0.0,N/A,0.000,0.000,0.000,0.000,0.000,0.000,0.000,0.000,No
 Zone Internal Gains, THERMAL ZONE 14,16.00,0.0,N/A,0.000,0.000,0.000,0.000,0.000,0.000,0.000,0.000,No
 Zone Internal Gains, THERMAL ZONE 24,21.00,0.0,N/A,0.000,0.000,0.000,0.000,0.000,0.000,0.000,0.000,No
 Zone Internal Gains, THERMAL ZONE 22,21.00,0.0,N/A,0.000,0.000,0.000,0.000,0.000,0.000,0.000,0.000,No
 Zone Internal Gains, THERMAL ZONE 18,21.00,0.0,N/A,0.000,0.000,0.000,0.000,0.000,0.000,0.000,0.000,No
 Zone Internal Gains, THERMAL ZONE 4,21.00,0.0,N/A,0.000,0.000,0.000,0.000,0.000,0.000,0.000,0.000,No
 Zone Internal Gains, THERMAL ZONE 15,16.00,0.0,N/A,0.000,0.000,0.000,0.000,0.000,0.000,0.000,0.000,No
 Zone Internal Gains, THERMAL ZONE 10,21.00,0.0,N/A,0.000,0.000,0.000,0.000,0.000,0.000,0.000,0.000,No
 Zone Internal Gains, THERMAL ZONE 17,21.00,0.0,N/A,0.000,0.000,0.000,0.000,0.000,0.000,0.000,0.000,No
 Zone Internal Gains, THERMAL ZONE 25,21.00,0.0,N/A,0.000,0.000,0.000,0.000,0.000,0.000,0.000,0.000,No
 Zone Internal Gains, THERMAL ZONE 23,21.00,0.0,N/A,0.000,0.000,0.000,0.000,0.000,0.000,0.000,0.000,No
 Zone Internal Gains, THERMAL ZONE 12,21.00,0.0,N/A,0.000,0.000,0.000,0.000,0.000,0.000,0.000,0.000,No
 Zone Internal Gains, THERMAL ZONE 3,21.00,0.0,N/A,0.000,0.000,0.000,0.000,0.000,0.000,0.000,0.000,No
 Zone Internal Gains, THERMAL ZONE 20,21.00,0.0,N/A,0.000,0.000,0.000,0.000,0.000,0.000,0.000,0.000,No
 Zone Internal Gains, THERMAL ZONE 13,16.00,0.0,N/A,0.000,0.000,0.000,0.000,0.000,0.000,0.000,0.000,No
 Zone Internal Gains, THERMAL ZONE 8,21.00,0.0,N/A,0.000,0.000,0.000,0.000,0.000,0.000,0.000,0.000,No
 Zone Internal Gains, THERMAL ZONE 21,16.00,0.0,N/A,0.000,0.000,0.000,0.000,0.000,0.000,0.000,0.000,No
 Zone Internal Gains, THERMAL ZONE 19,21.00,0.0,N/A,0.000,0.000,0.000,0.000,0.000,0.000,0.000,0.000,No
 Zone Internal Gains, THERMAL ZONE 16,21.00,0.0,N/A,0.000,0.000,0.000,0.000,0.000,0.000,0.000,0.000,No
 Zone Internal Gains, THERMAL ZONE 6,21.00,0.0,N/A,0.000,0.000,0.000,0.000,0.000,0.000,0.000,0.000,No
 Zone Internal Gains, THERMAL ZONE 1,21.00,0.0,N/A,0.000,0.000,0.000,0.000,0.000,0.000,0.000,0.000,No
 Zone Internal Gains, THERMAL ZONE 2,16.00,0.0,N/A,0.000,0.000,0.000,0.000,0.000,0.000,0.000,0.000,No
 Zone Internal Gains, THERMAL ZONE 9,21.00,0.0,N/A,0.000,0.000,0.000,0.000,0.000,0.000,0.000,0.000,No
! <Shadowing/Sun Position Calculations> [Annual Simulations], Value {days}, Allowable Number Figures in Shadow Overlap {}, Polygon Clipping Algorithm, Sky Diffuse Modeling Algorithm
Shadowing/Sun Position Calculations,20,15000,SutherlandHodgman,SimpleSkyDiffuseModeling
! <RoomAir Model>, Zone Name, Mixing/Mundt/UCSDDV/UCSDCV/UCSDUFI/UCSDUFE/User Defined
RoomAir Model,THERMAL ZONE 11,Mixing/Well-Stirred
RoomAir Model,THERMAL ZONE 7,Mixing/Well-Stirred
RoomAir Model,THERMAL ZONE 5,Mixing/Well-Stirred
RoomAir Model,THERMAL ZONE 14,Mixing/Well-Stirred
RoomAir Model,THERMAL ZONE 24,Mixing/Well-Stirred
RoomAir Model,THERMAL ZONE 22,Mixing/Well-Stirred
RoomAir Model,THERMAL ZONE 18,Mixing/Well-Stirred
RoomAir Model,THERMAL ZONE 4,Mixing/Well-Stirred
RoomAir Model,THERMAL ZONE 15,Mixing/Well-Stirred
RoomAir Model,THERMAL ZONE 10,Mixing/Well-Stirred
RoomAir Model,THERMAL ZONE 17,Mixing/Well-Stirred
RoomAir Model,THERMAL ZONE 25,Mixing/Well-Stirred
RoomAir Model,THERMAL ZONE 23,Mixing/Well-Stirred
RoomAir Model,THERMAL ZONE 12,Mixing/Well-Stirred
RoomAir Model,THERMAL ZONE 3,Mixing/Well-Stirred
RoomAir Model,THERMAL ZONE 20,Mixing/Well-Stirred
RoomAir Model,THERMAL ZONE 13,Mixing/Well-Stirred
RoomAir Model,THERMAL ZONE 8,Mixing/Well-Stirred
RoomAir Model,THERMAL ZONE 21,Mixing/Well-Stirred
RoomAir Model,THERMAL ZONE 19,Mixing/Well-Stirred
RoomAir Model,THERMAL ZONE 16,Mixing/Well-Stirred
RoomAir Model,THERMAL ZONE 6,Mixing/Well-Stirred
RoomAir Model,THERMAL ZONE 1,Mixing/Well-Stirred
RoomAir Model,THERMAL ZONE 2,Mixing/Well-Stirred
RoomAir Model,THERMAL ZONE 9,Mixing/Well-Stirred
! <AirflowNetwork Model:Control>, No Multizone or Distribution/Multizone with Distribution/Multizone without Distribution/Multizone with Distribution only during Fan Operation
AirflowNetwork Model:Control,NoMultizoneOrDistribution
! <Zone Volume Capacitance Multiplier>, Sensible Heat Capacity Multiplier, Moisture Capacity Multiplier, Carbon Dioxide Capacity Multiplier, Generic Contaminant Capacity Multiplier
Zone Volume Capacitance Multiplier,   1.000 ,   1.000,   1.000,   1.000
! <Load Timesteps in Zone Design Calculation Averaging Window>, Value
 Load Timesteps in Zone Design Calculation Averaging Window,    4
! <Heating Sizing Factor Information>, Sizing Factor ID, Value
 Heating Sizing Factor Information, Global,   1.2500    
 Heating Sizing Factor Information, Zone THERMAL ZONE 11,   1.2500    
 Heating Sizing Factor Information, Zone THERMAL ZONE 7,   1.2500    
 Heating Sizing Factor Information, Zone THERMAL ZONE 5,   1.2500    
 Heating Sizing Factor Information, Zone THERMAL ZONE 14,   1.2500    
 Heating Sizing Factor Information, Zone THERMAL ZONE 24,   1.2500    
 Heating Sizing Factor Information, Zone THERMAL ZONE 22,   1.2500    
 Heating Sizing Factor Information, Zone THERMAL ZONE 18,   1.2500    
 Heating Sizing Factor Information, Zone THERMAL ZONE 4,   1.2500    
 Heating Sizing Factor Information, Zone THERMAL ZONE 15,   1.2500    
 Heating Sizing Factor Information, Zone THERMAL ZONE 10,   1.2500    
 Heating Sizing Factor Information, Zone THERMAL ZONE 17,   1.2500    
 Heating Sizing Factor Information, Zone THERMAL ZONE 25,   1.2500    
 Heating Sizing Factor Information, Zone THERMAL ZONE 23,   1.2500    
 Heating Sizing Factor Information, Zone THERMAL ZONE 12,   1.2500    
 Heating Sizing Factor Information, Zone THERMAL ZONE 3,   1.2500    
 Heating Sizing Factor Information, Zone THERMAL ZONE 20,   1.2500    
 Heating Sizing Factor Information, Zone THERMAL ZONE 13,   1.2500    
 Heating Sizing Factor Information, Zone THERMAL ZONE 8,   1.2500    
 Heating Sizing Factor Information, Zone THERMAL ZONE 21,   1.2500    
 Heating Sizing Factor Information, Zone THERMAL ZONE 19,   1.2500    
 Heating Sizing Factor Information, Zone THERMAL ZONE 16,   1.2500    
 Heating Sizing Factor Information, Zone THERMAL ZONE 6,   1.2500    
 Heating Sizing Factor Information, Zone THERMAL ZONE 1,   1.2500    
 Heating Sizing Factor Information, Zone THERMAL ZONE 2,   1.2500    
 Heating Sizing Factor Information, Zone THERMAL ZONE 9,   1.2500    
! <Cooling Sizing Factor Information>, Sizing Factor ID, Value
 Cooling Sizing Factor Information, Global,   1.1500    
 Cooling Sizing Factor Information, Zone THERMAL ZONE 11,   1.1500    
 Cooling Sizing Factor Information, Zone THERMAL ZONE 7,   1.1500    
 Cooling Sizing Factor Information, Zone THERMAL ZONE 5,   1.1500    
 Cooling Sizing Factor Information, Zone THERMAL ZONE 14,   1.1500    
 Cooling Sizing Factor Information, Zone THERMAL ZONE 24,   1.1500    
 Cooling Sizing Factor Information, Zone THERMAL ZONE 22,   1.1500    
 Cooling Sizing Factor Information, Zone THERMAL ZONE 18,   1.1500    
 Cooling Sizing Factor Information, Zone THERMAL ZONE 4,   1.1500    
 Cooling Sizing Factor Information, Zone THERMAL ZONE 15,   1.1500    
 Cooling Sizing Factor Information, Zone THERMAL ZONE 10,   1.1500    
 Cooling Sizing Factor Information, Zone THERMAL ZONE 17,   1.1500    
 Cooling Sizing Factor Information, Zone THERMAL ZONE 25,   1.1500    
 Cooling Sizing Factor Information, Zone THERMAL ZONE 23,   1.1500    
 Cooling Sizing Factor Information, Zone THERMAL ZONE 12,   1.1500    
 Cooling Sizing Factor Information, Zone THERMAL ZONE 3,   1.1500    
 Cooling Sizing Factor Information, Zone THERMAL ZONE 20,   1.1500    
 Cooling Sizing Factor Information, Zone THERMAL ZONE 13,   1.1500    
 Cooling Sizing Factor Information, Zone THERMAL ZONE 8,   1.1500    
 Cooling Sizing Factor Information, Zone THERMAL ZONE 21,   1.1500    
 Cooling Sizing Factor Information, Zone THERMAL ZONE 19,   1.1500    
 Cooling Sizing Factor Information, Zone THERMAL ZONE 16,   1.1500    
 Cooling Sizing Factor Information, Zone THERMAL ZONE 6,   1.1500    
 Cooling Sizing Factor Information, Zone THERMAL ZONE 1,   1.1500    
 Cooling Sizing Factor Information, Zone THERMAL ZONE 2,   1.1500    
 Cooling Sizing Factor Information, Zone THERMAL ZONE 9,   1.1500    
! <Zone Sizing Information>, Zone Name, Load Type, Calc Des Load {W}, User Des Load {W}, Calc Des Air Flow Rate {m3/s}, User Des Air Flow Rate {m3/s}, Design Day Name, Date/Time of Peak, Temperature at Peak {C}, Humidity Ratio at Peak {kgWater/kgDryAir}, Floor Area {m2}, # Occupants, Calc Outdoor Air Flow Rate {m3/s}
 Zone Sizing Information, THERMAL ZONE 11, Cooling, 28.46945, 32.73987, 1.65568E-003, 1.90403E-003, PHILADELPHIA INTERNATIONAL AP ANN CLG .4% CONDNS DB=>MWB, 7/21 18:15:00, 31.39150, 1.48422E-002, 21.00000, 0.00000, 0.00000
 Zone Sizing Information, THERMAL ZONE 11, Heating, 1057.22003, 1321.52504, 5.38187E-002, 6.72734E-002, PHILADELPHIA INTERNATIONAL AP ANN HTG 99.6% CONDNS DB, 1/21 24:00:00, -10.80000, 1.48961E-003, 21.00000, 0.00000, 0.00000
 Zone Sizing Information, THERMAL ZONE 7, Cooling, 749.10349, 861.46902, 4.35417E-002, 5.00730E-002, PHILADELPHIA INTERNATIONAL AP ANN CLG .4% CONDNS DB=>MWB, 7/21 17:00:00, 32.68400, 1.48422E-002, 21.00000, 0.00000, 0.00000
 Zone Sizing Information, THERMAL ZONE 7, Heating, 1057.22003, 1321.52504, 5.38187E-002, 6.72734E-002, PHILADELPHIA INTERNATIONAL AP ANN HTG 99.6% CONDNS DB, 1/21 24:00:00, -10.80000, 1.48961E-003, 21.00000, 0.00000, 0.00000
 Zone Sizing Information, THERMAL ZONE 5, Cooling, 495.60414, 569.94477, 2.88071E-002, 3.31281E-002, PHILADELPHIA INTERNATIONAL AP ANN CLG .4% CONDNS DB=>MWB, 7/21 18:15:00, 31.39150, 1.48422E-002, 21.00000, 0.00000, 0.00000
 Zone Sizing Information, THERMAL ZONE 5, Heating, 958.78522, 1198.48153, 4.88078E-002, 6.10097E-002, PHILADELPHIA INTERNATIONAL AP ANN HTG 99.6% CONDNS DB, 1/21 24:00:00, -10.80000, 1.48961E-003, 21.00000, 0.00000, 0.00000
 Zone Sizing Information, THERMAL ZONE 14, Cooling, 173.33951, 199.34043, 1.00754E-002, 1.15867E-002, PHILADELPHIA INTERNATIONAL AP ANN CLG .4% CONDNS DB=>MWB, 7/21 17:15:00, 32.44900, 1.48422E-002, 16.00000, 0.00000, 0.00000
 Zone Sizing Information, THERMAL ZONE 14, Heating, 173.37174, 216.71468, 8.82564E-003, 1.10320E-002, PHILADELPHIA INTERNATIONAL AP ANN HTG 99.6% CONDNS DB, 1/21 24:00:00, -10.80000, 1.48961E-003, 16.00000, 0.00000, 0.00000
 Zone Sizing Information, THERMAL ZONE 24, Cooling, 1252.14834, 1439.97059, 7.27813E-002, 8.36985E-002, PHILADELPHIA INTERNATIONAL AP ANN CLG .4% CONDNS DB=>MWB, 7/21 17:15:00, 32.44900, 1.48422E-002, 21.00000, 0.00000, 0.00000
 Zone Sizing Information, THERMAL ZONE 24, Heating, 948.53714, 1185.67142, 4.82861E-002, 6.03576E-002, PHILADELPHIA INTERNATIONAL AP ANN HTG 99.6% CONDNS DB, 1/21 24:00:00, -10.80000, 1.48961E-003, 21.00000, 0.00000, 0.00000
 Zone Sizing Information, THERMAL ZONE 22, Cooling, 1014.88826, 1167.12149, 5.89905E-002, 6.78391E-002, PHILADELPHIA INTERNATIONAL AP ANN CLG .4% CONDNS DB=>MWB, 7/21 14:30:00, 34.00000, 1.48422E-002, 21.00000, 0.00000, 0.00000
 Zone Sizing Information, THERMAL ZONE 22, Heating, 937.41436, 1171.76795, 4.77199E-002, 5.96499E-002, PHILADELPHIA INTERNATIONAL AP ANN HTG 99.6% CONDNS DB, 1/21 24:00:00, -10.80000, 1.48961E-003, 21.00000, 0.00000, 0.00000
 Zone Sizing Information, THERMAL ZONE 18, Cooling, 1017.90513, 1170.59090, 5.91659E-002, 6.80408E-002, PHILADELPHIA INTERNATIONAL AP ANN CLG .4% CONDNS DB=>MWB, 7/21 14:30:00, 34.00000, 1.48422E-002, 21.00000, 0.00000, 0.00000
 Zone Sizing Information, THERMAL ZONE 18, Heating, 946.03182, 1182.53978, 4.81586E-002, 6.01982E-002, PHILADELPHIA INTERNATIONAL AP ANN HTG 99.6% CONDNS DB, 1/21 24:00:00, -10.80000, 1.48961E-003, 21.00000, 0.00000, 0.00000
 Zone Sizing Information, THERMAL ZONE 4, Cooling, 409.36461, 470.76930, 2.37943E-002, 2.73634E-002, PHILADELPHIA INTERNATIONAL AP ANN CLG .4% CONDNS DB=>MWB, 7/21 14:15:00, 34.00000, 1.48422E-002, 21.00000, 0.00000, 0.00000
 Zone Sizing Information, THERMAL ZONE 4, Heating, 1051.23553, 1314.04441, 5.35141E-002, 6.68926E-002, PHILADELPHIA INTERNATIONAL AP ANN HTG 99.6% CONDNS DB, 1/21 24:00:00, -10.80000, 1.48961E-003, 21.00000, 0.00000, 0.00000
 Zone Sizing Information, THERMAL ZONE 15, Cooling, 177.60871, 204.25002, 1.03235E-002, 1.18721E-002, PHILADELPHIA INTERNATIONAL AP ANN CLG .4% CONDNS DB=>MWB, 7/21 17:15:00, 32.44900, 1.48422E-002, 16.00000, 0.00000, 0.00000
 Zone Sizing Information, THERMAL ZONE 15, Heating, 178.79510, 223.49387, 9.10172E-003, 1.13771E-002, PHILADELPHIA INTERNATIONAL AP ANN HTG 99.6% CONDNS DB, 1/21 24:00:00, -10.80000, 1.48961E-003, 16.00000, 0.00000, 0.00000
 Zone Sizing Information, THERMAL ZONE 10, Cooling, 950.01891, 1092.52174, 5.52200E-002, 6.35030E-002, PHILADELPHIA INTERNATIONAL AP ANN CLG .4% CONDNS DB=>MWB, 7/21 14:30:00, 34.00000, 1.48422E-002, 21.00000, 0.00000, 0.00000
 Zone Sizing Information, THERMAL ZONE 10, Heating, 938.39208, 1172.99011, 4.77697E-002, 5.97121E-002, PHILADELPHIA INTERNATIONAL AP ANN HTG 99.6% CONDNS DB, 1/21 24:00:00, -10.80000, 1.48961E-003, 21.00000, 0.00000, 0.00000
 Zone Sizing Information, THERMAL ZONE 17, Cooling, 526.15441, 605.07757, 3.05828E-002, 3.51702E-002, PHILADELPHIA INTERNATIONAL AP ANN CLG .4% CONDNS DB=>MWB, 7/21 18:15:00, 31.39150, 1.48422E-002, 21.00000, 0.00000, 0.00000
 Zone Sizing Information, THERMAL ZONE 17, Heating, 1093.62631, 1367.03289, 5.56720E-002, 6.95900E-002, PHILADELPHIA INTERNATIONAL AP ANN HTG 99.6% CONDNS DB, 1/21 22:45:00, -10.80000, 1.48961E-003, 21.00000, 0.00000, 0.00000
 Zone Sizing Information, THERMAL ZONE 25, Cooling, 1009.99557, 1161.49491, 5.87061E-002, 6.75121E-002, PHILADELPHIA INTERNATIONAL AP ANN CLG .4% CONDNS DB=>MWB, 7/21 14:30:00, 34.00000, 1.48422E-002, 21.00000, 0.00000, 0.00000
 Zone Sizing Information, THERMAL ZONE 25, Heating, 1080.38621, 1350.48276, 5.49980E-002, 6.87475E-002, PHILADELPHIA INTERNATIONAL AP ANN HTG 99.6% CONDNS DB, 1/21 22:30:00, -10.80000, 1.48961E-003, 21.00000, 0.00000, 0.00000
 Zone Sizing Information, THERMAL ZONE 23, Cooling, 427.31195, 491.40874, 2.48375E-002, 2.85631E-002, PHILADELPHIA INTERNATIONAL AP ANN CLG .4% CONDNS DB=>MWB, 7/21 10:45:00, 31.48550, 1.48422E-002, 21.00000, 0.00000, 0.00000
 Zone Sizing Information, THERMAL ZONE 23, Heating, 1051.23553, 1314.04441, 5.35141E-002, 6.68926E-002, PHILADELPHIA INTERNATIONAL AP ANN HTG 99.6% CONDNS DB, 1/21 24:00:00, -10.80000, 1.48961E-003, 21.00000, 0.00000, 0.00000
 Zone Sizing Information, THERMAL ZONE 12, Cooling, 1313.61481, 1510.65703, 7.63541E-002, 8.78072E-002, PHILADELPHIA INTERNATIONAL AP ANN CLG .4% CONDNS DB=>MWB, 7/21 17:15:00, 32.44900, 1.48422E-002, 21.00000, 0.00000, 0.00000
 Zone Sizing Information, THERMAL ZONE 12, Heating, 958.78522, 1198.48153, 4.88078E-002, 6.10097E-002, PHILADELPHIA INTERNATIONAL AP ANN HTG 99.6% CONDNS DB, 1/21 24:00:00, -10.80000, 1.48961E-003, 21.00000, 0.00000, 0.00000
 Zone Sizing Information, THERMAL ZONE 3, Cooling, 1116.47518, 1283.94646, 6.48953E-002, 7.46296E-002, PHILADELPHIA INTERNATIONAL AP ANN CLG .4% CONDNS DB=>MWB, 7/21 11:00:00, 31.83800, 1.48422E-002, 21.00000, 0.00000, 0.00000
 Zone Sizing Information, THERMAL ZONE 3, Heating, 937.41436, 1171.76795, 4.77199E-002, 5.96499E-002, PHILADELPHIA INTERNATIONAL AP ANN HTG 99.6% CONDNS DB, 1/21 24:00:00, -10.80000, 1.48961E-003, 21.00000, 0.00000, 0.00000
 Zone Sizing Information, THERMAL ZONE 20, Cooling, 1311.75273, 1508.51564, 7.62458E-002, 8.76827E-002, PHILADELPHIA INTERNATIONAL AP ANN CLG .4% CONDNS DB=>MWB, 7/21 17:15:00, 32.44900, 1.48422E-002, 21.00000, 0.00000, 0.00000
 Zone Sizing Information, THERMAL ZONE 20, Heating, 949.19650, 1186.49562, 4.83197E-002, 6.03996E-002, PHILADELPHIA INTERNATIONAL AP ANN HTG 99.6% CONDNS DB, 1/21 24:00:00, -10.80000, 1.48961E-003, 21.00000, 0.00000, 0.00000
 Zone Sizing Information, THERMAL ZONE 13, Heating, 295.49227, 369.36534, 1.50423E-002, 1.88029E-002, PHILADELPHIA INTERNATIONAL AP ANN HTG 99.6% CONDNS DB, 1/21 24:00:00, -10.80000, 1.48961E-003, 16.00000, 0.00000, 0.00000
 Zone Sizing Information, THERMAL ZONE 8, Cooling, 1044.05010, 1200.65762, 6.06856E-002, 6.97884E-002, PHILADELPHIA INTERNATIONAL AP ANN CLG .4% CONDNS DB=>MWB, 7/21 11:00:00, 31.83800, 1.48422E-002, 21.00000, 0.00000, 0.00000
 Zone Sizing Information, THERMAL ZONE 8, Heating, 938.39208, 1172.99011, 4.77697E-002, 5.97121E-002, PHILADELPHIA INTERNATIONAL AP ANN HTG 99.6% CONDNS DB, 1/21 24:00:00, -10.80000, 1.48961E-003, 21.00000, 0.00000, 0.00000
 Zone Sizing Information, THERMAL ZONE 21, Cooling, 125.85590, 144.73428, 7.31539E-003, 8.41270E-003, PHILADELPHIA INTERNATIONAL AP ANN CLG .4% CONDNS DB=>MWB, 7/21 17:30:00, 32.21400, 1.48422E-002, 16.00000, 0.00000, 0.00000
 Zone Sizing Information, THERMAL ZONE 21, Heating, 178.40813, 223.01016, 9.08202E-003, 1.13525E-002, PHILADELPHIA INTERNATIONAL AP ANN HTG 99.6% CONDNS DB, 1/21 24:00:00, -10.80000, 1.48961E-003, 16.00000, 0.00000, 0.00000
 Zone Sizing Information, THERMAL ZONE 19, Cooling, 1324.30764, 1522.95379, 7.69756E-002, 8.85219E-002, PHILADELPHIA INTERNATIONAL AP ANN CLG .4% CONDNS DB=>MWB, 7/21 17:15:00, 32.44900, 1.48422E-002, 21.00000, 0.00000, 0.00000
 Zone Sizing Information, THERMAL ZONE 19, Heating, 1093.62631, 1367.03289, 5.56720E-002, 6.95900E-002, PHILADELPHIA INTERNATIONAL AP ANN HTG 99.6% CONDNS DB, 1/21 24:00:00, -10.80000, 1.48961E-003, 21.00000, 0.00000, 0.00000
 Zone Sizing Information, THERMAL ZONE 16, Cooling, 435.82316, 501.19663, 2.53323E-002, 2.91321E-002, PHILADELPHIA INTERNATIONAL AP ANN CLG .4% CONDNS DB=>MWB, 7/21 18:15:00, 31.39150, 1.48422E-002, 21.00000, 0.00000, 0.00000
 Zone Sizing Information, THERMAL ZONE 16, Heating, 948.53714, 1185.67142, 4.82861E-002, 6.03576E-002, PHILADELPHIA INTERNATIONAL AP ANN HTG 99.6% CONDNS DB, 1/21 24:00:00, -10.80000, 1.48961E-003, 21.00000, 0.00000, 0.00000
 Zone Sizing Information, THERMAL ZONE 6, Cooling, 1097.26004, 1261.84904, 6.37784E-002, 7.33452E-002, PHILADELPHIA INTERNATIONAL AP ANN CLG .4% CONDNS DB=>MWB, 7/21 11:00:00, 31.83800, 1.48422E-002, 21.00000, 0.00000, 0.00000
 Zone Sizing Information, THERMAL ZONE 6, Heating, 1080.38621, 1350.48276, 5.49980E-002, 6.87475E-002, PHILADELPHIA INTERNATIONAL AP ANN HTG 99.6% CONDNS DB, 1/21 24:00:00, -10.80000, 1.48961E-003, 21.00000, 0.00000, 0.00000
 Zone Sizing Information, THERMAL ZONE 1, Cooling, 491.52031, 565.24836, 2.85697E-002, 3.28551E-002, PHILADELPHIA INTERNATIONAL AP ANN CLG .4% CONDNS DB=>MWB, 7/21 18:15:00, 31.39150, 1.48422E-002, 21.00000, 0.00000, 0.00000
 Zone Sizing Information, THERMAL ZONE 1, Heating, 949.19650, 1186.49562, 4.83197E-002, 6.03996E-002, PHILADELPHIA INTERNATIONAL AP ANN HTG 99.6% CONDNS DB, 1/21 24:00:00, -10.80000, 1.48961E-003, 21.00000, 0.00000, 0.00000
 Zone Sizing Information, THERMAL ZONE 2, Cooling, 196.24596, 225.68285, 1.14068E-002, 1.31178E-002, PHILADELPHIA INTERNATIONAL AP ANN CLG .4% CONDNS DB=>MWB, 7/21 18:00:00, 31.74400, 1.48422E-002, 16.00000, 0.00000, 0.00000
 Zone Sizing Information, THERMAL ZONE 2, Heating, 277.83022, 347.28778, 1.41432E-002, 1.76790E-002, PHILADELPHIA INTERNATIONAL AP ANN HTG 99.6% CONDNS DB, 1/21 24:00:00, -10.80000, 1.48961E-003, 16.00000, 0.00000, 0.00000
 Zone Sizing Information, THERMAL ZONE 9, Cooling, 1119.75105, 1287.71371, 6.50857E-002, 7.48485E-002, PHILADELPHIA INTERNATIONAL AP ANN CLG .4% CONDNS DB=>MWB, 7/21 11:00:00, 31.83800, 1.48422E-002, 21.00000, 0.00000, 0.00000
 Zone Sizing Information, THERMAL ZONE 9, Heating, 946.03182, 1182.53978, 4.81586E-002, 6.01982E-002, PHILADELPHIA INTERNATIONAL AP ANN HTG 99.6% CONDNS DB, 1/21 24:00:00, -10.80000, 1.48961E-003, 21.00000, 0.00000, 0.00000
! <System Sizing Information>, System Name, Field Description, Value
 System Sizing Information, AIR LOOP HVAC 1, Calculated Cooling Design Air Flow Rate [m3/s], 1.19040
 System Sizing Information, AIR LOOP HVAC 1, User Cooling Design Air Flow Rate [m3/s], 1.19040
 System Sizing Information, AIR LOOP HVAC 1, Calculated Heating Design Air Flow Rate [m3/s], 1.33790
 System Sizing Information, AIR LOOP HVAC 1, User Heating Design Air Flow Rate [m3/s], 1.33790
! <Component Sizing Information>, Component Type, Component Name, Input Field Description, Value
 Component Sizing Information, AirTerminal:SingleDuct:VAV:Reheat, AIR TERMINAL SINGLE DUCT VAV REHEAT 13, Maximum Air Flow Rate [m3/s], 6.72734E-002
 Component Sizing Information, AirTerminal:SingleDuct:VAV:Reheat, AIR TERMINAL SINGLE DUCT VAV REHEAT 13, Maximum Flow per Zone Floor Area during Reheat [m3/s-m2], 2.03200E-003
 Component Sizing Information, AirTerminal:SingleDuct:VAV:Reheat, AIR TERMINAL SINGLE DUCT VAV REHEAT 13, Maximum Flow Fraction during Reheat [], 0.63431
 Component Sizing Information, AirTerminal:SingleDuct:VAV:Reheat, AIR TERMINAL SINGLE DUCT VAV REHEAT 13, Maximum Reheat Water Flow Rate [m3/s], 4.96357E-005
 Component Sizing Information, AirTerminal:SingleDuct:VAV:Reheat, AIR TERMINAL SINGLE DUCT VAV REHEAT 13, Reheat Coil Sizing Air Volume Flow Rate [m3/s], 6.72734E-002
 Component Sizing Information, Coil:Heating:Water, COIL HEATING WATER 14, Maximum Water Flow Rate [m3/s], 4.96357E-005
 Component Sizing Information, Coil:Heating:Water, COIL HEATING WATER 14, Design Coil Load [W], 2284.74716
 Component Sizing Information, Coil:Heating:Water, COIL HEATING WATER 14, U-Factor Times Area Value [W/K], 47.85056
! <Water Heating Coil Capacity Information>,Component Type,Name,Nominal Total Capacity {W}
Water Heating Coil Capacity Information,Coil:Heating:Water,COIL HEATING WATER 14,2164.27
 Component Sizing Information, AirTerminal:SingleDuct:VAV:Reheat, AIR TERMINAL SINGLE DUCT VAV REHEAT 4, Maximum Air Flow Rate [m3/s], 6.72734E-002
 Component Sizing Information, AirTerminal:SingleDuct:VAV:Reheat, AIR TERMINAL SINGLE DUCT VAV REHEAT 4, Maximum Flow per Zone Floor Area during Reheat [m3/s-m2], 2.03200E-003
 Component Sizing Information, AirTerminal:SingleDuct:VAV:Reheat, AIR TERMINAL SINGLE DUCT VAV REHEAT 4, Maximum Flow Fraction during Reheat [], 0.63431
 Component Sizing Information, AirTerminal:SingleDuct:VAV:Reheat, AIR TERMINAL SINGLE DUCT VAV REHEAT 4, Maximum Reheat Water Flow Rate [m3/s], 4.96357E-005
 Component Sizing Information, AirTerminal:SingleDuct:VAV:Reheat, AIR TERMINAL SINGLE DUCT VAV REHEAT 4, Reheat Coil Sizing Air Volume Flow Rate [m3/s], 6.72734E-002
 Component Sizing Information, Coil:Heating:Water, COIL HEATING WATER 5, Maximum Water Flow Rate [m3/s], 4.96357E-005
 Component Sizing Information, Coil:Heating:Water, COIL HEATING WATER 5, Design Coil Load [W], 2284.74716
 Component Sizing Information, Coil:Heating:Water, COIL HEATING WATER 5, U-Factor Times Area Value [W/K], 47.85056
Water Heating Coil Capacity Information,Coil:Heating:Water,COIL HEATING WATER 5,2164.27
 Component Sizing Information, AirTerminal:SingleDuct:VAV:Reheat, AIR TERMINAL SINGLE DUCT VAV REHEAT 11, Maximum Air Flow Rate [m3/s], 6.10097E-002
 Component Sizing Information, AirTerminal:SingleDuct:VAV:Reheat, AIR TERMINAL SINGLE DUCT VAV REHEAT 11, Maximum Flow per Zone Floor Area during Reheat [m3/s-m2], 2.03200E-003
 Component Sizing Information, AirTerminal:SingleDuct:VAV:Reheat, AIR TERMINAL SINGLE DUCT VAV REHEAT 11, Maximum Flow Fraction during Reheat [], 0.69943
 Component Sizing Information, AirTerminal:SingleDuct:VAV:Reheat, AIR TERMINAL SINGLE DUCT VAV REHEAT 11, Maximum Reheat Water Flow Rate [m3/s], 4.50143E-005
 Component Sizing Information, AirTerminal:SingleDuct:VAV:Reheat, AIR TERMINAL SINGLE DUCT VAV REHEAT 11, Reheat Coil Sizing Air Volume Flow Rate [m3/s], 6.10097E-002
 Component Sizing Information, Coil:Heating:Water, COIL HEATING WATER 12, Maximum Water Flow Rate [m3/s], 4.50143E-005
 Component Sizing Information, Coil:Heating:Water, COIL HEATING WATER 12, Design Coil Load [W], 2072.02073
 Component Sizing Information, Coil:Heating:Water, COIL HEATING WATER 12, U-Factor Times Area Value [W/K], 43.39532
Water Heating Coil Capacity Information,Coil:Heating:Water,COIL HEATING WATER 12,1962.76
 Component Sizing Information, AirTerminal:SingleDuct:VAV:Reheat, AIR TERMINAL SINGLE DUCT VAV REHEAT 3, Maximum Air Flow Rate [m3/s], 1.15867E-002
 Component Sizing Information, AirTerminal:SingleDuct:VAV:Reheat, AIR TERMINAL SINGLE DUCT VAV REHEAT 3, Maximum Flow per Zone Floor Area during Reheat [m3/s-m2], 7.24168E-004
 Component Sizing Information, AirTerminal:SingleDuct:VAV:Reheat, AIR TERMINAL SINGLE DUCT VAV REHEAT 3, Maximum Flow Fraction during Reheat [], 1.00000
 Component Sizing Information, AirTerminal:SingleDuct:VAV:Reheat, AIR TERMINAL SINGLE DUCT VAV REHEAT 3, Maximum Reheat Water Flow Rate [m3/s], 8.13968E-006
 Component Sizing Information, AirTerminal:SingleDuct:VAV:Reheat, AIR TERMINAL SINGLE DUCT VAV REHEAT 3, Reheat Coil Sizing Air Volume Flow Rate [m3/s], 1.10320E-002
 Component Sizing Information, Coil:Heating:Water, COIL HEATING WATER 4, Maximum Water Flow Rate [m3/s], 8.13968E-006
 Component Sizing Information, Coil:Heating:Water, COIL HEATING WATER 4, Design Coil Load [W], 374.67187
 Component Sizing Information, Coil:Heating:Water, COIL HEATING WATER 4, U-Factor Times Area Value [W/K], 8.24144
Water Heating Coil Capacity Information,Coil:Heating:Water,COIL HEATING WATER 4,367.06
 Component Sizing Information, AirTerminal:SingleDuct:VAV:Reheat, AIR TERMINAL SINGLE DUCT VAV REHEAT 18, Maximum Air Flow Rate [m3/s], 8.36985E-002
 Component Sizing Information, AirTerminal:SingleDuct:VAV:Reheat, AIR TERMINAL SINGLE DUCT VAV REHEAT 18, Maximum Flow per Zone Floor Area during Reheat [m3/s-m2], 2.03200E-003
 Component Sizing Information, AirTerminal:SingleDuct:VAV:Reheat, AIR TERMINAL SINGLE DUCT VAV REHEAT 18, Maximum Flow Fraction during Reheat [], 0.50983
 Component Sizing Information, AirTerminal:SingleDuct:VAV:Reheat, AIR TERMINAL SINGLE DUCT VAV REHEAT 18, Maximum Reheat Water Flow Rate [m3/s], 4.45331E-005
 Component Sizing Information, AirTerminal:SingleDuct:VAV:Reheat, AIR TERMINAL SINGLE DUCT VAV REHEAT 18, Reheat Coil Sizing Air Volume Flow Rate [m3/s], 6.03576E-002
 Component Sizing Information, Coil:Heating:Water, COIL HEATING WATER 19, Maximum Water Flow Rate [m3/s], 4.45331E-005
 Component Sizing Information, Coil:Heating:Water, COIL HEATING WATER 19, Design Coil Load [W], 2049.87370
 Component Sizing Information, Coil:Heating:Water, COIL HEATING WATER 19, U-Factor Times Area Value [W/K], 59.53351
Water Heating Coil Capacity Information,Coil:Heating:Water,COIL HEATING WATER 19,2403.21
 Component Sizing Information, AirTerminal:SingleDuct:VAV:Reheat, AIR TERMINAL SINGLE DUCT VAV REHEAT 26, Maximum Air Flow Rate [m3/s], 6.78391E-002
 Component Sizing Information, AirTerminal:SingleDuct:VAV:Reheat, AIR TERMINAL SINGLE DUCT VAV REHEAT 26, Maximum Flow per Zone Floor Area during Reheat [m3/s-m2], 2.03200E-003
 Component Sizing Information, AirTerminal:SingleDuct:VAV:Reheat, AIR TERMINAL SINGLE DUCT VAV REHEAT 26, Maximum Flow Fraction during Reheat [], 0.62902
 Component Sizing Information, AirTerminal:SingleDuct:VAV:Reheat, AIR TERMINAL SINGLE DUCT VAV REHEAT 26, Maximum Reheat Water Flow Rate [m3/s], 4.40109E-005
 Component Sizing Information, AirTerminal:SingleDuct:VAV:Reheat, AIR TERMINAL SINGLE DUCT VAV REHEAT 26, Reheat Coil Sizing Air Volume Flow Rate [m3/s], 5.96499E-002
 Component Sizing Information, Coil:Heating:Water, COIL HEATING WATER 27, Maximum Water Flow Rate [m3/s], 4.40109E-005
 Component Sizing Information, Coil:Heating:Water, COIL HEATING WATER 27, Design Coil Load [W], 2025.83638
 Component Sizing Information, Coil:Heating:Water, COIL HEATING WATER 27, U-Factor Times Area Value [W/K], 48.25296
Water Heating Coil Capacity Information,Coil:Heating:Water,COIL HEATING WATER 27,2093.54
 Component Sizing Information, AirTerminal:SingleDuct:VAV:Reheat, AIR TERMINAL SINGLE DUCT VAV REHEAT 14, Maximum Air Flow Rate [m3/s], 6.80408E-002
 Component Sizing Information, AirTerminal:SingleDuct:VAV:Reheat, AIR TERMINAL SINGLE DUCT VAV REHEAT 14, Maximum Flow per Zone Floor Area during Reheat [m3/s-m2], 2.03200E-003
 Component Sizing Information, AirTerminal:SingleDuct:VAV:Reheat, AIR TERMINAL SINGLE DUCT VAV REHEAT 14, Maximum Flow Fraction during Reheat [], 0.62715
 Component Sizing Information, AirTerminal:SingleDuct:VAV:Reheat, AIR TERMINAL SINGLE DUCT VAV REHEAT 14, Maximum Reheat Water Flow Rate [m3/s], 4.44155E-005
 Component Sizing Information, AirTerminal:SingleDuct:VAV:Reheat, AIR TERMINAL SINGLE DUCT VAV REHEAT 14, Reheat Coil Sizing Air Volume Flow Rate [m3/s], 6.01982E-002
 Component Sizing Information, Coil:Heating:Water, COIL HEATING WATER 15, Maximum Water Flow Rate [m3/s], 4.44155E-005
 Component Sizing Information, Coil:Heating:Water, COIL HEATING WATER 15, Design Coil Load [W], 2044.45949
 Component Sizing Information, Coil:Heating:Water, COIL HEATING WATER 15, U-Factor Times Area Value [W/K], 48.39639
Water Heating Coil Capacity Information,Coil:Heating:Water,COIL HEATING WATER 15,2104.15
 Component Sizing Information, AirTerminal:SingleDuct:VAV:Reheat, AIR TERMINAL SINGLE DUCT VAV REHEAT 15, Maximum Air Flow Rate [m3/s], 6.68926E-002
 Component Sizing Information, AirTerminal:SingleDuct:VAV:Reheat, AIR TERMINAL SINGLE DUCT VAV REHEAT 15, Maximum Flow per Zone Floor Area during Reheat [m3/s-m2], 2.03200E-003
 Component Sizing Information, AirTerminal:SingleDuct:VAV:Reheat, AIR TERMINAL SINGLE DUCT VAV REHEAT 15, Maximum Flow Fraction during Reheat [], 0.63792
 Component Sizing Information, AirTerminal:SingleDuct:VAV:Reheat, AIR TERMINAL SINGLE DUCT VAV REHEAT 15, Maximum Reheat Water Flow Rate [m3/s], 4.93547E-005
 Component Sizing Information, AirTerminal:SingleDuct:VAV:Reheat, AIR TERMINAL SINGLE DUCT VAV REHEAT 15, Reheat Coil Sizing Air Volume Flow Rate [m3/s], 6.68926E-002
 Component Sizing Information, Coil:Heating:Water, COIL HEATING WATER 16, Maximum Water Flow Rate [m3/s], 4.93547E-005
 Component Sizing Information, Coil:Heating:Water, COIL HEATING WATER 16, Design Coil Load [W], 2271.81412
 Component Sizing Information, Coil:Heating:Water, COIL HEATING WATER 16, U-Factor Times Area Value [W/K], 47.57969
Water Heating Coil Capacity Information,Coil:Heating:Water,COIL HEATING WATER 16,2152.02
 Component Sizing Information, AirTerminal:SingleDuct:VAV:Reheat, AIR TERMINAL SINGLE DUCT VAV REHEAT 5, Maximum Air Flow Rate [m3/s], 1.18721E-002
 Component Sizing Information, AirTerminal:SingleDuct:VAV:Reheat, AIR TERMINAL SINGLE DUCT VAV REHEAT 5, Maximum Flow per Zone Floor Area during Reheat [m3/s-m2], 7.42004E-004
 Component Sizing Information, AirTerminal:SingleDuct:VAV:Reheat, AIR TERMINAL SINGLE DUCT VAV REHEAT 5, Maximum Flow Fraction during Reheat [], 1.00000
 Component Sizing Information, AirTerminal:SingleDuct:VAV:Reheat, AIR TERMINAL SINGLE DUCT VAV REHEAT 5, Maximum Reheat Water Flow Rate [m3/s], 8.39430E-006
 Component Sizing Information, AirTerminal:SingleDuct:VAV:Reheat, AIR TERMINAL SINGLE DUCT VAV REHEAT 5, Reheat Coil Sizing Air Volume Flow Rate [m3/s], 1.13771E-002
 Component Sizing Information, Coil:Heating:Water, COIL HEATING WATER 6, Maximum Water Flow Rate [m3/s], 8.39430E-006
 Component Sizing Information, Coil:Heating:Water, COIL HEATING WATER 6, Design Coil Load [W], 386.39221
 Component Sizing Information, Coil:Heating:Water, COIL HEATING WATER 6, U-Factor Times Area Value [W/K], 8.44442
Water Heating Coil Capacity Information,Coil:Heating:Water,COIL HEATING WATER 6,376.88
 Component Sizing Information, AirTerminal:SingleDuct:VAV:Reheat, AIR TERMINAL SINGLE DUCT VAV REHEAT 22, Maximum Air Flow Rate [m3/s], 6.35030E-002
 Component Sizing Information, AirTerminal:SingleDuct:VAV:Reheat, AIR TERMINAL SINGLE DUCT VAV REHEAT 22, Maximum Flow per Zone Floor Area during Reheat [m3/s-m2], 2.03200E-003
 Component Sizing Information, AirTerminal:SingleDuct:VAV:Reheat, AIR TERMINAL SINGLE DUCT VAV REHEAT 22, Maximum Flow Fraction during Reheat [], 0.67197
 Component Sizing Information, AirTerminal:SingleDuct:VAV:Reheat, AIR TERMINAL SINGLE DUCT VAV REHEAT 22, Maximum Reheat Water Flow Rate [m3/s], 4.40568E-005
 Component Sizing Information, AirTerminal:SingleDuct:VAV:Reheat, AIR TERMINAL SINGLE DUCT VAV REHEAT 22, Reheat Coil Sizing Air Volume Flow Rate [m3/s], 5.97121E-002
 Component Sizing Information, Coil:Heating:Water, COIL HEATING WATER 23, Maximum Water Flow Rate [m3/s], 4.40568E-005
 Component Sizing Information, Coil:Heating:Water, COIL HEATING WATER 23, Design Coil Load [W], 2027.94933
 Component Sizing Information, Coil:Heating:Water, COIL HEATING WATER 23, U-Factor Times Area Value [W/K], 45.16874
Water Heating Coil Capacity Information,Coil:Heating:Water,COIL HEATING WATER 23,2003.68
 Component Sizing Information, AirTerminal:SingleDuct:VAV:Reheat, AIR TERMINAL SINGLE DUCT VAV REHEAT 21, Maximum Air Flow Rate [m3/s], 6.95900E-002
 Component Sizing Information, AirTerminal:SingleDuct:VAV:Reheat, AIR TERMINAL SINGLE DUCT VAV REHEAT 21, Maximum Flow per Zone Floor Area during Reheat [m3/s-m2], 2.03200E-003
 Component Sizing Information, AirTerminal:SingleDuct:VAV:Reheat, AIR TERMINAL SINGLE DUCT VAV REHEAT 21, Maximum Flow Fraction during Reheat [], 0.61319
 Component Sizing Information, AirTerminal:SingleDuct:VAV:Reheat, AIR TERMINAL SINGLE DUCT VAV REHEAT 21, Maximum Reheat Water Flow Rate [m3/s], 5.13450E-005
 Component Sizing Information, AirTerminal:SingleDuct:VAV:Reheat, AIR TERMINAL SINGLE DUCT VAV REHEAT 21, Reheat Coil Sizing Air Volume Flow Rate [m3/s], 6.95900E-002
 Component Sizing Information, Coil:Heating:Water, COIL HEATING WATER 22, Maximum Water Flow Rate [m3/s], 5.13450E-005
 Component Sizing Information, Coil:Heating:Water, COIL HEATING WATER 22, Design Coil Load [W], 2363.42440
 Component Sizing Information, Coil:Heating:Water, COIL HEATING WATER 22, U-Factor Times Area Value [W/K], 49.49833
Water Heating Coil Capacity Information,Coil:Heating:Water,COIL HEATING WATER 22,2238.80
 Component Sizing Information, AirTerminal:SingleDuct:VAV:Reheat, AIR TERMINAL SINGLE DUCT VAV REHEAT 23, Maximum Air Flow Rate [m3/s], 6.87475E-002
 Component Sizing Information, AirTerminal:SingleDuct:VAV:Reheat, AIR TERMINAL SINGLE DUCT VAV REHEAT 23, Maximum Flow per Zone Floor Area during Reheat [m3/s-m2], 2.03200E-003
 Component Sizing Information, AirTerminal:SingleDuct:VAV:Reheat, AIR TERMINAL SINGLE DUCT VAV REHEAT 23, Maximum Flow Fraction during Reheat [], 0.62071
 Component Sizing Information, AirTerminal:SingleDuct:VAV:Reheat, AIR TERMINAL SINGLE DUCT VAV REHEAT 23, Maximum Reheat Water Flow Rate [m3/s], 5.07234E-005
 Component Sizing Information, AirTerminal:SingleDuct:VAV:Reheat, AIR TERMINAL SINGLE DUCT VAV REHEAT 23, Reheat Coil Sizing Air Volume Flow Rate [m3/s], 6.87475E-002
 Component Sizing Information, Coil:Heating:Water, COIL HEATING WATER 24, Maximum Water Flow Rate [m3/s], 5.07234E-005
 Component Sizing Information, Coil:Heating:Water, COIL HEATING WATER 24, Design Coil Load [W], 2334.81134
 Component Sizing Information, Coil:Heating:Water, COIL HEATING WATER 24, U-Factor Times Area Value [W/K], 48.89907
Water Heating Coil Capacity Information,Coil:Heating:Water,COIL HEATING WATER 24,2211.69
 Component Sizing Information, AirTerminal:SingleDuct:VAV:Reheat, AIR TERMINAL SINGLE DUCT VAV REHEAT 7, Maximum Air Flow Rate [m3/s], 6.68926E-002
 Component Sizing Information, AirTerminal:SingleDuct:VAV:Reheat, AIR TERMINAL SINGLE DUCT VAV REHEAT 7, Maximum Flow per Zone Floor Area during Reheat [m3/s-m2], 2.03200E-003
 Component Sizing Information, AirTerminal:SingleDuct:VAV:Reheat, AIR TERMINAL SINGLE DUCT VAV REHEAT 7, Maximum Flow Fraction during Reheat [], 0.63792
 Component Sizing Information, AirTerminal:SingleDuct:VAV:Reheat, AIR TERMINAL SINGLE DUCT VAV REHEAT 7, Maximum Reheat Water Flow Rate [m3/s], 4.93547E-005
 Component Sizing Information, AirTerminal:SingleDuct:VAV:Reheat, AIR TERMINAL SINGLE DUCT VAV REHEAT 7, Reheat Coil Sizing Air Volume Flow Rate [m3/s], 6.68926E-002
 Component Sizing Information, Coil:Heating:Water, COIL HEATING WATER 8, Maximum Water Flow Rate [m3/s], 4.93547E-005
 Component Sizing Information, Coil:Heating:Water, COIL HEATING WATER 8, Design Coil Load [W], 2271.81412
 Component Sizing Information, Coil:Heating:Water, COIL HEATING WATER 8, U-Factor Times Area Value [W/K], 47.57969
Water Heating Coil Capacity Information,Coil:Heating:Water,COIL HEATING WATER 8,2152.02
 Component Sizing Information, AirTerminal:SingleDuct:VAV:Reheat, AIR TERMINAL SINGLE DUCT VAV REHEAT 24, Maximum Air Flow Rate [m3/s], 8.78072E-002
 Component Sizing Information, AirTerminal:SingleDuct:VAV:Reheat, AIR TERMINAL SINGLE DUCT VAV REHEAT 24, Maximum Flow per Zone Floor Area during Reheat [m3/s-m2], 2.03200E-003
 Component Sizing Information, AirTerminal:SingleDuct:VAV:Reheat, AIR TERMINAL SINGLE DUCT VAV REHEAT 24, Maximum Flow Fraction during Reheat [], 0.48597
 Component Sizing Information, AirTerminal:SingleDuct:VAV:Reheat, AIR TERMINAL SINGLE DUCT VAV REHEAT 24, Maximum Reheat Water Flow Rate [m3/s], 4.50143E-005
 Component Sizing Information, AirTerminal:SingleDuct:VAV:Reheat, AIR TERMINAL SINGLE DUCT VAV REHEAT 24, Reheat Coil Sizing Air Volume Flow Rate [m3/s], 6.10097E-002
 Component Sizing Information, Coil:Heating:Water, COIL HEATING WATER 25, Maximum Water Flow Rate [m3/s], 4.50143E-005
 Component Sizing Information, Coil:Heating:Water, COIL HEATING WATER 25, Design Coil Load [W], 2072.02073
 Component Sizing Information, Coil:Heating:Water, COIL HEATING WATER 25, U-Factor Times Area Value [W/K], 62.45594
Water Heating Coil Capacity Information,Coil:Heating:Water,COIL HEATING WATER 25,2484.47
 Component Sizing Information, AirTerminal:SingleDuct:VAV:Reheat, AIR TERMINAL SINGLE DUCT VAV REHEAT 8, Maximum Air Flow Rate [m3/s], 7.46296E-002
 Component Sizing Information, AirTerminal:SingleDuct:VAV:Reheat, AIR TERMINAL SINGLE DUCT VAV REHEAT 8, Maximum Flow per Zone Floor Area during Reheat [m3/s-m2], 2.03200E-003
 Component Sizing Information, AirTerminal:SingleDuct:VAV:Reheat, AIR TERMINAL SINGLE DUCT VAV REHEAT 8, Maximum Flow Fraction during Reheat [], 0.57178
 Component Sizing Information, AirTerminal:SingleDuct:VAV:Reheat, AIR TERMINAL SINGLE DUCT VAV REHEAT 8, Maximum Reheat Water Flow Rate [m3/s], 4.40109E-005
 Component Sizing Information, AirTerminal:SingleDuct:VAV:Reheat, AIR TERMINAL SINGLE DUCT VAV REHEAT 8, Reheat Coil Sizing Air Volume Flow Rate [m3/s], 5.96499E-002
 Component Sizing Information, Coil:Heating:Water, COIL HEATING WATER 9, Maximum Water Flow Rate [m3/s], 4.40109E-005
 Component Sizing Information, Coil:Heating:Water, COIL HEATING WATER 9, Design Coil Load [W], 2025.83638
 Component Sizing Information, Coil:Heating:Water, COIL HEATING WATER 9, U-Factor Times Area Value [W/K], 53.08291
Water Heating Coil Capacity Information,Coil:Heating:Water,COIL HEATING WATER 9,2227.33
 Component Sizing Information, AirTerminal:SingleDuct:VAV:Reheat, AIR TERMINAL SINGLE DUCT VAV REHEAT 2, Maximum Air Flow Rate [m3/s], 8.76827E-002
 Component Sizing Information, AirTerminal:SingleDuct:VAV:Reheat, AIR TERMINAL SINGLE DUCT VAV REHEAT 2, Maximum Flow per Zone Floor Area during Reheat [m3/s-m2], 2.03200E-003
 Component Sizing Information, AirTerminal:SingleDuct:VAV:Reheat, AIR TERMINAL SINGLE DUCT VAV REHEAT 2, Maximum Flow Fraction during Reheat [], 0.48666
 Component Sizing Information, AirTerminal:SingleDuct:VAV:Reheat, AIR TERMINAL SINGLE DUCT VAV REHEAT 2, Maximum Reheat Water Flow Rate [m3/s], 4.45641E-005
 Component Sizing Information, AirTerminal:SingleDuct:VAV:Reheat, AIR TERMINAL SINGLE DUCT VAV REHEAT 2, Reheat Coil Sizing Air Volume Flow Rate [m3/s], 6.03996E-002
 Component Sizing Information, Coil:Heating:Water, COIL HEATING WATER 3, Maximum Water Flow Rate [m3/s], 4.45641E-005
 Component Sizing Information, Coil:Heating:Water, COIL HEATING WATER 3, Design Coil Load [W], 2051.29864
 Component Sizing Information, Coil:Heating:Water, COIL HEATING WATER 3, U-Factor Times Area Value [W/K], 62.36740
Water Heating Coil Capacity Information,Coil:Heating:Water,COIL HEATING WATER 3,2472.38
 Component Sizing Information, AirTerminal:SingleDuct:VAV:Reheat, AIR TERMINAL SINGLE DUCT VAV REHEAT 9, Maximum Air Flow Rate [m3/s], 1.88029E-002
 Component Sizing Information, AirTerminal:SingleDuct:VAV:Reheat, AIR TERMINAL SINGLE DUCT VAV REHEAT 9, Maximum Flow per Zone Floor Area during Reheat [m3/s-m2], 1.17518E-003
 Component Sizing Information, AirTerminal:SingleDuct:VAV:Reheat, AIR TERMINAL SINGLE DUCT VAV REHEAT 9, Maximum Flow Fraction during Reheat [], 1.00000
 Component Sizing Information, AirTerminal:SingleDuct:VAV:Reheat, AIR TERMINAL SINGLE DUCT VAV REHEAT 9, Maximum Reheat Water Flow Rate [m3/s], 1.38731E-005
 Component Sizing Information, AirTerminal:SingleDuct:VAV:Reheat, AIR TERMINAL SINGLE DUCT VAV REHEAT 9, Reheat Coil Sizing Air Volume Flow Rate [m3/s], 1.88029E-002
 Component Sizing Information, Coil:Heating:Water, COIL HEATING WATER 10, Maximum Water Flow Rate [m3/s], 1.38731E-005
 Component Sizing Information, Coil:Heating:Water, COIL HEATING WATER 10, Design Coil Load [W], 638.58526
 Component Sizing Information, Coil:Heating:Water, COIL HEATING WATER 10, U-Factor Times Area Value [W/K], 13.37420
Water Heating Coil Capacity Information,Coil:Heating:Water,COIL HEATING WATER 10,604.91
 Component Sizing Information, AirTerminal:SingleDuct:VAV:Reheat, AIR TERMINAL SINGLE DUCT VAV REHEAT 10, Maximum Air Flow Rate [m3/s], 6.97884E-002
 Component Sizing Information, AirTerminal:SingleDuct:VAV:Reheat, AIR TERMINAL SINGLE DUCT VAV REHEAT 10, Maximum Flow per Zone Floor Area during Reheat [m3/s-m2], 2.03200E-003
 Component Sizing Information, AirTerminal:SingleDuct:VAV:Reheat, AIR TERMINAL SINGLE DUCT VAV REHEAT 10, Maximum Flow Fraction during Reheat [], 0.61145
 Component Sizing Information, AirTerminal:SingleDuct:VAV:Reheat, AIR TERMINAL SINGLE DUCT VAV REHEAT 10, Maximum Reheat Water Flow Rate [m3/s], 4.40568E-005
 Component Sizing Information, AirTerminal:SingleDuct:VAV:Reheat, AIR TERMINAL SINGLE DUCT VAV REHEAT 10, Reheat Coil Sizing Air Volume Flow Rate [m3/s], 5.97121E-002
 Component Sizing Information, Coil:Heating:Water, COIL HEATING WATER 11, Maximum Water Flow Rate [m3/s], 4.40568E-005
 Component Sizing Information, Coil:Heating:Water, COIL HEATING WATER 11, Design Coil Load [W], 2027.94933
 Component Sizing Information, Coil:Heating:Water, COIL HEATING WATER 11, U-Factor Times Area Value [W/K], 49.63946
Water Heating Coil Capacity Information,Coil:Heating:Water,COIL HEATING WATER 11,2133.68
 Component Sizing Information, AirTerminal:SingleDuct:VAV:Reheat, AIR TERMINAL SINGLE DUCT VAV REHEAT 16, Maximum Air Flow Rate [m3/s], 1.13525E-002
 Component Sizing Information, AirTerminal:SingleDuct:VAV:Reheat, AIR TERMINAL SINGLE DUCT VAV REHEAT 16, Maximum Flow per Zone Floor Area during Reheat [m3/s-m2], 7.09533E-004
 Component Sizing Information, AirTerminal:SingleDuct:VAV:Reheat, AIR TERMINAL SINGLE DUCT VAV REHEAT 16, Maximum Flow Fraction during Reheat [], 1.00000
 Component Sizing Information, AirTerminal:SingleDuct:VAV:Reheat, AIR TERMINAL SINGLE DUCT VAV REHEAT 16, Maximum Reheat Water Flow Rate [m3/s], 8.37613E-006
 Component Sizing Information, AirTerminal:SingleDuct:VAV:Reheat, AIR TERMINAL SINGLE DUCT VAV REHEAT 16, Reheat Coil Sizing Air Volume Flow Rate [m3/s], 1.13525E-002
 Component Sizing Information, Coil:Heating:Water, COIL HEATING WATER 17, Maximum Water Flow Rate [m3/s], 8.37613E-006
 Component Sizing Information, Coil:Heating:Water, COIL HEATING WATER 17, Design Coil Load [W], 385.55594
 Component Sizing Information, Coil:Heating:Water, COIL HEATING WATER 17, U-Factor Times Area Value [W/K], 8.07488
Water Heating Coil Capacity Information,Coil:Heating:Water,COIL HEATING WATER 17,365.22
 Component Sizing Information, AirTerminal:SingleDuct:VAV:Reheat, AIR TERMINAL SINGLE DUCT VAV REHEAT 20, Maximum Air Flow Rate [m3/s], 8.85219E-002
 Component Sizing Information, AirTerminal:SingleDuct:VAV:Reheat, AIR TERMINAL SINGLE DUCT VAV REHEAT 20, Maximum Flow per Zone Floor Area during Reheat [m3/s-m2], 2.03200E-003
 Component Sizing Information, AirTerminal:SingleDuct:VAV:Reheat, AIR TERMINAL SINGLE DUCT VAV REHEAT 20, Maximum Flow Fraction during Reheat [], 0.48205
 Component Sizing Information, AirTerminal:SingleDuct:VAV:Reheat, AIR TERMINAL SINGLE DUCT VAV REHEAT 20, Maximum Reheat Water Flow Rate [m3/s], 5.13450E-005
 Component Sizing Information, AirTerminal:SingleDuct:VAV:Reheat, AIR TERMINAL SINGLE DUCT VAV REHEAT 20, Reheat Coil Sizing Air Volume Flow Rate [m3/s], 6.95900E-002
 Component Sizing Information, Coil:Heating:Water, COIL HEATING WATER 21, Maximum Water Flow Rate [m3/s], 5.13450E-005
 Component Sizing Information, Coil:Heating:Water, COIL HEATING WATER 21, Design Coil Load [W], 2363.42440
 Component Sizing Information, Coil:Heating:Water, COIL HEATING WATER 21, U-Factor Times Area Value [W/K], 62.96433
Water Heating Coil Capacity Information,Coil:Heating:Water,COIL HEATING WATER 21,2626.02
 Component Sizing Information, AirTerminal:SingleDuct:VAV:Reheat, AIR TERMINAL SINGLE DUCT VAV REHEAT 17, Maximum Air Flow Rate [m3/s], 6.03576E-002
 Component Sizing Information, AirTerminal:SingleDuct:VAV:Reheat, AIR TERMINAL SINGLE DUCT VAV REHEAT 17, Maximum Flow per Zone Floor Area during Reheat [m3/s-m2], 2.03200E-003
 Component Sizing Information, AirTerminal:SingleDuct:VAV:Reheat, AIR TERMINAL SINGLE DUCT VAV REHEAT 17, Maximum Flow Fraction during Reheat [], 0.70699
 Component Sizing Information, AirTerminal:SingleDuct:VAV:Reheat, AIR TERMINAL SINGLE DUCT VAV REHEAT 17, Maximum Reheat Water Flow Rate [m3/s], 4.45331E-005
 Component Sizing Information, AirTerminal:SingleDuct:VAV:Reheat, AIR TERMINAL SINGLE DUCT VAV REHEAT 17, Reheat Coil Sizing Air Volume Flow Rate [m3/s], 6.03576E-002
 Component Sizing Information, Coil:Heating:Water, COIL HEATING WATER 18, Maximum Water Flow Rate [m3/s], 4.45331E-005
 Component Sizing Information, Coil:Heating:Water, COIL HEATING WATER 18, Design Coil Load [W], 2049.87370
 Component Sizing Information, Coil:Heating:Water, COIL HEATING WATER 18, U-Factor Times Area Value [W/K], 42.93149
Water Heating Coil Capacity Information,Coil:Heating:Water,COIL HEATING WATER 18,1941.78
 Component Sizing Information, AirTerminal:SingleDuct:VAV:Reheat, AIR TERMINAL SINGLE DUCT VAV REHEAT 6, Maximum Air Flow Rate [m3/s], 7.33452E-002
 Component Sizing Information, AirTerminal:SingleDuct:VAV:Reheat, AIR TERMINAL SINGLE DUCT VAV REHEAT 6, Maximum Flow per Zone Floor Area during Reheat [m3/s-m2], 2.03200E-003
 Component Sizing Information, AirTerminal:SingleDuct:VAV:Reheat, AIR TERMINAL SINGLE DUCT VAV REHEAT 6, Maximum Flow Fraction during Reheat [], 0.58180
 Component Sizing Information, AirTerminal:SingleDuct:VAV:Reheat, AIR TERMINAL SINGLE DUCT VAV REHEAT 6, Maximum Reheat Water Flow Rate [m3/s], 5.07234E-005
 Component Sizing Information, AirTerminal:SingleDuct:VAV:Reheat, AIR TERMINAL SINGLE DUCT VAV REHEAT 6, Reheat Coil Sizing Air Volume Flow Rate [m3/s], 6.87475E-002
 Component Sizing Information, Coil:Heating:Water, COIL HEATING WATER 7, Maximum Water Flow Rate [m3/s], 5.07234E-005
 Component Sizing Information, Coil:Heating:Water, COIL HEATING WATER 7, Design Coil Load [W], 2334.81134
 Component Sizing Information, Coil:Heating:Water, COIL HEATING WATER 7, U-Factor Times Area Value [W/K], 52.16933
Water Heating Coil Capacity Information,Coil:Heating:Water,COIL HEATING WATER 7,2311.85
 Component Sizing Information, AirTerminal:SingleDuct:VAV:Reheat, AIR TERMINAL SINGLE DUCT VAV REHEAT 19, Maximum Air Flow Rate [m3/s], 6.03996E-002
 Component Sizing Information, AirTerminal:SingleDuct:VAV:Reheat, AIR TERMINAL SINGLE DUCT VAV REHEAT 19, Maximum Flow per Zone Floor Area during Reheat [m3/s-m2], 2.03200E-003
 Component Sizing Information, AirTerminal:SingleDuct:VAV:Reheat, AIR TERMINAL SINGLE DUCT VAV REHEAT 19, Maximum Flow Fraction during Reheat [], 0.70649
 Component Sizing Information, AirTerminal:SingleDuct:VAV:Reheat, AIR TERMINAL SINGLE DUCT VAV REHEAT 19, Maximum Reheat Water Flow Rate [m3/s], 4.45641E-005
 Component Sizing Information, AirTerminal:SingleDuct:VAV:Reheat, AIR TERMINAL SINGLE DUCT VAV REHEAT 19, Reheat Coil Sizing Air Volume Flow Rate [m3/s], 6.03996E-002
 Component Sizing Information, Coil:Heating:Water, COIL HEATING WATER 20, Maximum Water Flow Rate [m3/s], 4.45641E-005
 Component Sizing Information, Coil:Heating:Water, COIL HEATING WATER 20, Design Coil Load [W], 2051.29864
 Component Sizing Information, Coil:Heating:Water, COIL HEATING WATER 20, U-Factor Times Area Value [W/K], 42.96133
Water Heating Coil Capacity Information,Coil:Heating:Water,COIL HEATING WATER 20,1943.13
 Component Sizing Information, AirTerminal:SingleDuct:VAV:Reheat, AIR TERMINAL SINGLE DUCT VAV REHEAT 25, Maximum Air Flow Rate [m3/s], 1.76790E-002
 Component Sizing Information, AirTerminal:SingleDuct:VAV:Reheat, AIR TERMINAL SINGLE DUCT VAV REHEAT 25, Maximum Flow per Zone Floor Area during Reheat [m3/s-m2], 1.10494E-003
 Component Sizing Information, AirTerminal:SingleDuct:VAV:Reheat, AIR TERMINAL SINGLE DUCT VAV REHEAT 25, Maximum Flow Fraction during Reheat [], 1.00000
 Component Sizing Information, AirTerminal:SingleDuct:VAV:Reheat, AIR TERMINAL SINGLE DUCT VAV REHEAT 25, Maximum Reheat Water Flow Rate [m3/s], 1.30439E-005
 Component Sizing Information, AirTerminal:SingleDuct:VAV:Reheat, AIR TERMINAL SINGLE DUCT VAV REHEAT 25, Reheat Coil Sizing Air Volume Flow Rate [m3/s], 1.76790E-002
 Component Sizing Information, Coil:Heating:Water, COIL HEATING WATER 26, Maximum Water Flow Rate [m3/s], 1.30439E-005
 Component Sizing Information, Coil:Heating:Water, COIL HEATING WATER 26, Design Coil Load [W], 600.41599
 Component Sizing Information, Coil:Heating:Water, COIL HEATING WATER 26, U-Factor Times Area Value [W/K], 12.57480
Water Heating Coil Capacity Information,Coil:Heating:Water,COIL HEATING WATER 26,568.75
 Component Sizing Information, AirTerminal:SingleDuct:VAV:Reheat, AIR TERMINAL SINGLE DUCT VAV REHEAT 12, Maximum Air Flow Rate [m3/s], 7.48485E-002
 Component Sizing Information, AirTerminal:SingleDuct:VAV:Reheat, AIR TERMINAL SINGLE DUCT VAV REHEAT 12, Maximum Flow per Zone Floor Area during Reheat [m3/s-m2], 2.03200E-003
 Component Sizing Information, AirTerminal:SingleDuct:VAV:Reheat, AIR TERMINAL SINGLE DUCT VAV REHEAT 12, Maximum Flow Fraction during Reheat [], 0.57011
 Component Sizing Information, AirTerminal:SingleDuct:VAV:Reheat, AIR TERMINAL SINGLE DUCT VAV REHEAT 12, Maximum Reheat Water Flow Rate [m3/s], 4.44155E-005
 Component Sizing Information, AirTerminal:SingleDuct:VAV:Reheat, AIR TERMINAL SINGLE DUCT VAV REHEAT 12, Reheat Coil Sizing Air Volume Flow Rate [m3/s], 6.01982E-002
 Component Sizing Information, Coil:Heating:Water, COIL HEATING WATER 13, Maximum Water Flow Rate [m3/s], 4.44155E-005
 Component Sizing Information, Coil:Heating:Water, COIL HEATING WATER 13, Design Coil Load [W], 2044.45949
 Component Sizing Information, Coil:Heating:Water, COIL HEATING WATER 13, U-Factor Times Area Value [W/K], 53.23867
Water Heating Coil Capacity Information,Coil:Heating:Water,COIL HEATING WATER 13,2238.90
 Component Sizing Information, Branch, BRANCH {8DB99AD4-032B-4622-96DA-824D4F268BB7}, Maximum Flow Rate [m3/s], 1.33790
 Component Sizing Information, AirLoopHVAC, AIR LOOP HVAC 1, Design Supply Air Flow Rate [m3/s], 1.33790
 Component Sizing Information, Controller:OutdoorAir, CONTROLLER OUTDOOR AIR 1, Maximum Outdoor Air Flow Rate [m3/s], 1.33790
 Component Sizing Information, Controller:OutdoorAir, CONTROLLER OUTDOOR AIR 1, Minimum Outdoor Air Flow Rate [m3/s], 0.00000
 Component Sizing Information, Coil:Cooling:DX:TwoSpeed, COIL COOLING DX TWO SPEED 1, Rated High Speed Air Flow Rate [m3/s], 1.33790
 Component Sizing Information, Coil:Cooling:DX:TwoSpeed, COIL COOLING DX TWO SPEED 1, Rated High Speed Total Cooling Capacity (gross) [W], 33223.35680
 Component Sizing Information, Coil:Cooling:DX:TwoSpeed, COIL COOLING DX TWO SPEED 1, Rated High Speed Sensible Heat Ratio, 0.67608
 Component Sizing Information, Coil:Cooling:DX:TwoSpeed, COIL COOLING DX TWO SPEED 1, Rated Low Speed Air Flow Rate [m3/s], 0.44592
 Component Sizing Information, Coil:Cooling:DX:TwoSpeed, COIL COOLING DX TWO SPEED 1, Rated Low Speed Total Cooling Capacity (gross) [W], 11073.34482
! <VAV DX Cooling Coil Standard Rating Information>, DX Coil Type, DX Coil Name, Fan Type, Fan Name, Standard Net Cooling Capacity {W}, Standard Net Cooling Capacity {Btu/h}, IEER {Btu/W-h}, COP 100% Capacity {W/W}, COP 75% Capacity {W/W}, COP 50% Capacity {W/W}, COP 25% Capacity {W/W}, EER 100% Capacity {Btu/W-h}, EER 75% Capacity {Btu/W-h}, EER 50% Capacity {Btu/W-h}, EER 25% Capacity {Btu/W-h}, Supply Air Flow 100% {kg/s}, Supply Air Flow 75% {kg/s},Supply Air Flow 50% {kg/s},Supply Air Flow 25% {kg/s}
 VAV DX Cooling Coil Standard Rating Information, Coil:Cooling:DX:TwoSpeed,COIL COOLING DX TWO SPEED 1,N/A,N/A,32245.02,110024.57,25.64,4.59,6.13,8.63,12.67,15.66,20.93,29.43,43.23,1.5471,1.2372,0.8514,0.4349,
 Component Sizing Information, Coil:Heating:Water, COIL HEATING WATER 1, Maximum Water Flow Rate [m3/s], 2.48974E-004
 Component Sizing Information, Coil:Heating:Water, COIL HEATING WATER 1, Design Coil Load [W], 11460.35837
 Component Sizing Information, Coil:Heating:Water, COIL HEATING WATER 1, U-Factor Times Area Value [W/K], 156.56268
Water Heating Coil Capacity Information,Coil:Heating:Water,COIL HEATING WATER 1,8923.13
 Component Sizing Information, Fan:VariableVolume, FAN VARIABLE VOLUME 1, Maximum Flow Rate [m3/s], 1.33790
 Component Sizing Information, Controller:WaterCoil, CONTROLLER WATER COIL 1, Maximum Actuated Flow [m3/s], 2.48974E-004
 Component Sizing Information, Controller:WaterCoil, CONTROLLER WATER COIL 1, Controller Convergence Tolerance, 1.00000E-003
 Component Sizing Information, Boiler:HotWater, BOILER HOT WATER 1, Nominal Capacity [W], 57118.70230
 Component Sizing Information, Boiler:HotWater, BOILER HOT WATER 1, Design Water Flow Rate [m3/s], 1.23611E-003
 Component Sizing Information, PlantLoop, PLANT LOOP 1, Maximum Loop Flow Rate [m3/s], 1.23611E-003
 Component Sizing Information, PlantLoop, PLANT LOOP 1, Plant Loop Volume [m3], 1.39062
 Component Sizing Information, Pump:VariableSpeed, PUMP VARIABLE SPEED 1, Rated Flow Rate [m3/s], 1.23611E-003
 Component Sizing Information, Pump:VariableSpeed, PUMP VARIABLE SPEED 1, Rated Power Consumption [W], 315.80987
! <Environment>,Environment Name,Environment Type, Start Date, End Date, Start DayOfWeek, Duration {#days}, Source:Start DayOfWeek,  Use Daylight Saving, Use Holidays, Apply Weekend Holiday Rule,  Use Rain Values, Use Snow Values
! <Environment:Special Days>, Special Day Name, Special Day Type, Source, Start Date, Duration {#days}
! <Environment:Daylight Saving>, Daylight Saving Indicator, Source, Start Date, End Date
! <Environment:WarmupDays>, NumberofWarmupDays
Environment,PHILADELPHIA INTERNATIONAL AP ANN CLG 2% CONDNS DP=>MDB,SizingPeriod:DesignDay,07/21,07/21,SummerDesignDay,1,N/A,N/A,N/A,N/A,N/A,N/A
Environment:Daylight Saving,No,SizingPeriod:DesignDay
! <Environment:Design Day Data>, Max Dry-Bulb Temp {C}, Temp Range {dC}, Temp Range Ind Type, Hum Ind Value at Max Temp, Hum Ind Type,Pressure {Pa}, Wind Direction {deg CW from N}, Wind Speed {m/s}, Clearness, Rain, Snow
! <Environment:Design_Day_Misc>,DayOfYear,ASHRAE A Coeff,ASHRAE B Coeff,ASHRAE C Coeff,Solar Constant-Annual Variation,Eq of Time {minutes}, Solar Declination Angle {deg}, Solar Model
Environment:Design Day Data,26.80,9.40,DefaultMultipliers,101301,240,5.0,0.00,No ,No 
Environment:Design_Day_Misc,202,1084.4,0.2082,0.1365,1.0,-6.23,20.6,ASHRAETau
Environment:WarmupDays,  6
! <Tabular Report>,Style
Tabular Report,HTML
! <Warmup Convergence Information>,Zone Name,Environment Type/Name,Average Warmup Temperature Difference {deltaC},Std Dev Warmup Temperature Difference {deltaC},Max Temperature Pass/Fail Convergence,Min Temperature Pass/Fail Convergence,Average Warmup Load Difference {W},Std Dev Warmup Load Difference {W},Heating Load Pass/Fail Convergence,Cooling Load Pass/Fail Convergence
 Warmup Convergence Information,THERMAL ZONE 11,SizingPeriod: PHILADELPHIA INTERNATIONAL AP ANN CLG 2% CONDNS DP=>MDB,1.0166610461E-003,8.1866916933E-004,Pass,Pass,0.6566694453,4.3549901500,Pass,Pass
 Warmup Convergence Information,THERMAL ZONE 7,SizingPeriod: PHILADELPHIA INTERNATIONAL AP ANN CLG 2% CONDNS DP=>MDB,7.8733953164E-002,0.1326338291,Pass,Pass,0.2287885222,0.5795081737,Pass,Pass
 Warmup Convergence Information,THERMAL ZONE 5,SizingPeriod: PHILADELPHIA INTERNATIONAL AP ANN CLG 2% CONDNS DP=>MDB,3.8800653370E-002,3.6478369166E-002,Pass,Pass,0.1101296530,0.3187119633,Pass,Pass
 Warmup Convergence Information,THERMAL ZONE 14,SizingPeriod: PHILADELPHIA INTERNATIONAL AP ANN CLG 2% CONDNS DP=>MDB,4.5790176082E-002,1.7260410173E-002,Pass,Pass,3.5518692744E-003,1.3779695490E-003,Pass,Pass
 Warmup Convergence Information,THERMAL ZONE 24,SizingPeriod: PHILADELPHIA INTERNATIONAL AP ANN CLG 2% CONDNS DP=>MDB,8.3718987744E-002,0.1072610341,Pass,Pass,5.8796897264E-002,5.1849732000E-002,Pass,Pass
 Warmup Convergence Information,THERMAL ZONE 22,SizingPeriod: PHILADELPHIA INTERNATIONAL AP ANN CLG 2% CONDNS DP=>MDB,8.3573650922E-002,7.5945851383E-002,Pass,Pass,4.2514478120E-002,4.9906506076E-002,Pass,Pass
 Warmup Convergence Information,THERMAL ZONE 18,SizingPeriod: PHILADELPHIA INTERNATIONAL AP ANN CLG 2% CONDNS DP=>MDB,8.3534572027E-002,7.5546595284E-002,Pass,Pass,4.1661204759E-002,4.9443273933E-002,Pass,Pass
 Warmup Convergence Information,THERMAL ZONE 4,SizingPeriod: PHILADELPHIA INTERNATIONAL AP ANN CLG 2% CONDNS DP=>MDB,4.4767481031E-002,6.8337483839E-002,Pass,Pass,0.2836756303,1.1523228422,Pass,Pass
 Warmup Convergence Information,THERMAL ZONE 15,SizingPeriod: PHILADELPHIA INTERNATIONAL AP ANN CLG 2% CONDNS DP=>MDB,4.4972458156E-002,1.6986868185E-002,Pass,Pass,3.4899718617E-003,1.3587833370E-003,Pass,Pass
 Warmup Convergence Information,THERMAL ZONE 10,SizingPeriod: PHILADELPHIA INTERNATIONAL AP ANN CLG 2% CONDNS DP=>MDB,8.3546310133E-002,7.7662588093E-002,Pass,Pass,7.5919825495E-002,0.1121381425,Pass,Pass
 Warmup Convergence Information,THERMAL ZONE 17,SizingPeriod: PHILADELPHIA INTERNATIONAL AP ANN CLG 2% CONDNS DP=>MDB,3.3340798964E-002,3.5325692223E-002,Pass,Pass,0.1714246728,0.6111848374,Pass,Pass
 Warmup Convergence Information,THERMAL ZONE 25,SizingPeriod: PHILADELPHIA INTERNATIONAL AP ANN CLG 2% CONDNS DP=>MDB,8.1459278784E-002,7.1933194609E-002,Pass,Pass,4.7814151409E-002,6.0867219738E-002,Pass,Pass
 Warmup Convergence Information,THERMAL ZONE 23,SizingPeriod: PHILADELPHIA INTERNATIONAL AP ANN CLG 2% CONDNS DP=>MDB,5.2067816174E-002,8.1461017237E-002,Pass,Pass,0.2530047456,1.0849161023,Pass,Pass
 Warmup Convergence Information,THERMAL ZONE 12,SizingPeriod: PHILADELPHIA INTERNATIONAL AP ANN CLG 2% CONDNS DP=>MDB,8.3681077185E-002,0.1051805889,Pass,Pass,4.4990312849E-002,3.6317851648E-002,Pass,Pass
 Warmup Convergence Information,THERMAL ZONE 3,SizingPeriod: PHILADELPHIA INTERNATIONAL AP ANN CLG 2% CONDNS DP=>MDB,8.3504843960E-002,8.4555582704E-002,Pass,Pass,4.9535754774E-002,7.4454176410E-002,Pass,Pass
 Warmup Convergence Information,THERMAL ZONE 20,SizingPeriod: PHILADELPHIA INTERNATIONAL AP ANN CLG 2% CONDNS DP=>MDB,8.3683591557E-002,0.1050537851,Pass,Pass,4.5010743366E-002,3.6716550361E-002,Pass,Pass
 Warmup Convergence Information,THERMAL ZONE 13,SizingPeriod: PHILADELPHIA INTERNATIONAL AP ANN CLG 2% CONDNS DP=>MDB,5.2120051691E-004,4.3368186666E-004,Pass,Pass,0.3637623880,1.9245907808,Pass,Pass
 Warmup Convergence Information,THERMAL ZONE 8,SizingPeriod: PHILADELPHIA INTERNATIONAL AP ANN CLG 2% CONDNS DP=>MDB,8.3023366547E-002,8.5353764358E-002,Pass,Pass,0.1438967776,0.4652550923,Pass,Pass
 Warmup Convergence Information,THERMAL ZONE 21,SizingPeriod: PHILADELPHIA INTERNATIONAL AP ANN CLG 2% CONDNS DP=>MDB,4.8062058306E-002,1.8166159591E-002,Pass,Pass,3.8302176943E-003,1.4914490836E-003,Pass,Pass
 Warmup Convergence Information,THERMAL ZONE 19,SizingPeriod: PHILADELPHIA INTERNATIONAL AP ANN CLG 2% CONDNS DP=>MDB,8.3673876971E-002,0.1055163704,Pass,Pass,5.0618628319E-002,4.1483106646E-002,Pass,Pass
 Warmup Convergence Information,THERMAL ZONE 16,SizingPeriod: PHILADELPHIA INTERNATIONAL AP ANN CLG 2% CONDNS DP=>MDB,3.4813015070E-002,3.6970962036E-002,Pass,Pass,0.1785231230,0.5687158229,Pass,Pass
 Warmup Convergence Information,THERMAL ZONE 6,SizingPeriod: PHILADELPHIA INTERNATIONAL AP ANN CLG 2% CONDNS DP=>MDB,7.9509689471E-002,8.1364479153E-002,Pass,Pass,5.5026952549E-002,8.8053503762E-002,Pass,Pass
 Warmup Convergence Information,THERMAL ZONE 1,SizingPeriod: PHILADELPHIA INTERNATIONAL AP ANN CLG 2% CONDNS DP=>MDB,3.9313715383E-002,3.6790034473E-002,Pass,Pass,0.1589447692,0.7249374807,Pass,Pass
 Warmup Convergence Information,THERMAL ZONE 2,SizingPeriod: PHILADELPHIA INTERNATIONAL AP ANN CLG 2% CONDNS DP=>MDB,4.5851086078E-002,1.8109268635E-002,Pass,Pass,3.6808449397E-003,1.4434562145E-003,Pass,Pass
 Warmup Convergence Information,THERMAL ZONE 9,SizingPeriod: PHILADELPHIA INTERNATIONAL AP ANN CLG 2% CONDNS DP=>MDB,8.3510864792E-002,8.4170687499E-002,Pass,Pass,4.8482238741E-002,7.2421414274E-002,Pass,Pass
Environment,PHILADELPHIA INTERNATIONAL AP ANN CLG 2% CONDNS ENTH=>MDB,SizingPeriod:DesignDay,07/21,07/21,SummerDesignDay,1,N/A,N/A,N/A,N/A,N/A,N/A
Environment:Daylight Saving,No,SizingPeriod:DesignDay
Environment:Design Day Data,28.80,9.40,DefaultMultipliers,101301,240,5.0,0.00,No ,No 
Environment:Design_Day_Misc,202,1084.4,0.2082,0.1365,1.0,-6.23,20.6,ASHRAETau
Environment:WarmupDays,  6
 Warmup Convergence Information,THERMAL ZONE 11,SizingPeriod: PHILADELPHIA INTERNATIONAL AP ANN CLG 2% CONDNS ENTH=>MDB,8.4772227244E-004,5.8722051920E-004,Pass,Pass,0.3187144764,1.3307353642,Pass,Pass
 Warmup Convergence Information,THERMAL ZONE 7,SizingPeriod: PHILADELPHIA INTERNATIONAL AP ANN CLG 2% CONDNS ENTH=>MDB,8.3970569432E-002,0.1375450267,Pass,Pass,0.3701778683,1.8312161060,Pass,Pass
 Warmup Convergence Information,THERMAL ZONE 5,SizingPeriod: PHILADELPHIA INTERNATIONAL AP ANN CLG 2% CONDNS ENTH=>MDB,5.0000901492E-002,3.4565601927E-002,Pass,Pass,2.7232659237E-002,3.9265196321E-002,Pass,Pass
 Warmup Convergence Information,THERMAL ZONE 14,SizingPeriod: PHILADELPHIA INTERNATIONAL AP ANN CLG 2% CONDNS ENTH=>MDB,4.6238661007E-002,1.7847462832E-002,Pass,Pass,3.5275784530E-003,1.2902430091E-003,Pass,Pass
 Warmup Convergence Information,THERMAL ZONE 24,SizingPeriod: PHILADELPHIA INTERNATIONAL AP ANN CLG 2% CONDNS ENTH=>MDB,8.3692778233E-002,0.1028741392,Pass,Pass,4.0771056005E-002,3.5835929417E-002,Pass,Pass
 Warmup Convergence Information,THERMAL ZONE 22,SizingPeriod: PHILADELPHIA INTERNATIONAL AP ANN CLG 2% CONDNS ENTH=>MDB,8.3465701463E-002,7.8383505806E-002,Pass,Pass,2.7989272883E-002,2.9099575927E-002,Pass,Pass
 Warmup Convergence Information,THERMAL ZONE 18,SizingPeriod: PHILADELPHIA INTERNATIONAL AP ANN CLG 2% CONDNS ENTH=>MDB,8.3439792841E-002,7.8144826004E-002,Pass,Pass,2.7250701552E-002,2.9032302843E-002,Pass,Pass
 Warmup Convergence Information,THERMAL ZONE 4,SizingPeriod: PHILADELPHIA INTERNATIONAL AP ANN CLG 2% CONDNS ENTH=>MDB,5.1991048544E-002,7.4887755838E-002,Pass,Pass,1.3127584833,10.6695266661,Pass,Pass
 Warmup Convergence Information,THERMAL ZONE 15,SizingPeriod: PHILADELPHIA INTERNATIONAL AP ANN CLG 2% CONDNS ENTH=>MDB,4.5375318253E-002,1.7572639856E-002,Pass,Pass,3.4575459269E-003,1.2710381292E-003,Pass,Pass
 Warmup Convergence Information,THERMAL ZONE 10,SizingPeriod: PHILADELPHIA INTERNATIONAL AP ANN CLG 2% CONDNS ENTH=>MDB,8.3487779345E-002,8.1097638019E-002,Pass,Pass,3.7046702450E-002,3.9544067126E-002,Pass,Pass
 Warmup Convergence Information,THERMAL ZONE 17,SizingPeriod: PHILADELPHIA INTERNATIONAL AP ANN CLG 2% CONDNS ENTH=>MDB,4.5563330860E-002,3.4839921976E-002,Pass,Pass,3.0945680911E-002,4.0710774093E-002,Pass,Pass
 Warmup Convergence Information,THERMAL ZONE 25,SizingPeriod: PHILADELPHIA INTERNATIONAL AP ANN CLG 2% CONDNS ENTH=>MDB,8.3448748339E-002,7.6428085048E-002,Pass,Pass,2.7825869969E-002,3.0558529727E-002,Pass,Pass
 Warmup Convergence Information,THERMAL ZONE 23,SizingPeriod: PHILADELPHIA INTERNATIONAL AP ANN CLG 2% CONDNS ENTH=>MDB,5.8499520565E-002,8.4197423545E-002,Pass,Pass,0.2033231015,0.5838941010,Pass,Pass
 Warmup Convergence Information,THERMAL ZONE 12,SizingPeriod: PHILADELPHIA INTERNATIONAL AP ANN CLG 2% CONDNS ENTH=>MDB,8.3502660584E-002,9.9612052686E-002,Pass,Pass,3.3338636443E-002,3.2266044149E-002,Pass,Pass
 Warmup Convergence Information,THERMAL ZONE 3,SizingPeriod: PHILADELPHIA INTERNATIONAL AP ANN CLG 2% CONDNS ENTH=>MDB,8.3450814667E-002,8.9323856703E-002,Pass,Pass,3.1377630386E-002,4.3037576320E-002,Pass,Pass
 Warmup Convergence Information,THERMAL ZONE 20,SizingPeriod: PHILADELPHIA INTERNATIONAL AP ANN CLG 2% CONDNS ENTH=>MDB,8.3542185032E-002,9.9789887522E-002,Pass,Pass,3.3707408691E-002,3.2528112766E-002,Pass,Pass
 Warmup Convergence Information,THERMAL ZONE 13,SizingPeriod: PHILADELPHIA INTERNATIONAL AP ANN CLG 2% CONDNS ENTH=>MDB,4.7837174346E-004,4.3474589565E-004,Pass,Pass,0.2470024482,0.7554572149,Pass,Pass
 Warmup Convergence Information,THERMAL ZONE 8,SizingPeriod: PHILADELPHIA INTERNATIONAL AP ANN CLG 2% CONDNS ENTH=>MDB,8.3438532525E-002,8.9996825881E-002,Pass,Pass,4.1326666386E-002,5.7260971435E-002,Pass,Pass
 Warmup Convergence Information,THERMAL ZONE 21,SizingPeriod: PHILADELPHIA INTERNATIONAL AP ANN CLG 2% CONDNS ENTH=>MDB,4.8867473857E-002,1.8678007027E-002,Pass,Pass,3.8435243685E-003,1.3936494107E-003,Pass,Pass
 Warmup Convergence Information,THERMAL ZONE 19,SizingPeriod: PHILADELPHIA INTERNATIONAL AP ANN CLG 2% CONDNS ENTH=>MDB,8.3621749577E-002,0.1005207201,Pass,Pass,3.5385742307E-002,3.2497235199E-002,Pass,Pass
 Warmup Convergence Information,THERMAL ZONE 16,SizingPeriod: PHILADELPHIA INTERNATIONAL AP ANN CLG 2% CONDNS ENTH=>MDB,4.4927200061E-002,3.7042982406E-002,Pass,Pass,4.6181156855E-002,6.4443466050E-002,Pass,Pass
 Warmup Convergence Information,THERMAL ZONE 6,SizingPeriod: PHILADELPHIA INTERNATIONAL AP ANN CLG 2% CONDNS ENTH=>MDB,8.3429105405E-002,8.5822462467E-002,Pass,Pass,2.9394325843E-002,4.2285231523E-002,Pass,Pass
 Warmup Convergence Information,THERMAL ZONE 1,SizingPeriod: PHILADELPHIA INTERNATIONAL AP ANN CLG 2% CONDNS ENTH=>MDB,5.0304393459E-002,3.4788399730E-002,Pass,Pass,2.7995153939E-002,4.0412463344E-002,Pass,Pass
 Warmup Convergence Information,THERMAL ZONE 2,SizingPeriod: PHILADELPHIA INTERNATIONAL AP ANN CLG 2% CONDNS ENTH=>MDB,4.6763266270E-002,1.9229352534E-002,Pass,Pass,3.6498071516E-003,1.4191959723E-003,Pass,Pass
 Warmup Convergence Information,THERMAL ZONE 9,SizingPeriod: PHILADELPHIA INTERNATIONAL AP ANN CLG 2% CONDNS ENTH=>MDB,8.3440294434E-002,8.9003465658E-002,Pass,Pass,3.0695614410E-002,4.1772706823E-002,Pass,Pass
Environment,PHILADELPHIA INTERNATIONAL AP ANN CLG 1% CONDNS WB=>MDB,SizingPeriod:DesignDay,07/21,07/21,SummerDesignDay,1,N/A,N/A,N/A,N/A,N/A,N/A
Environment:Daylight Saving,No,SizingPeriod:DesignDay
Environment:Design Day Data,30.20,9.40,DefaultMultipliers,101301,240,5.0,0.00,No ,No 
Environment:Design_Day_Misc,202,1084.4,0.2082,0.1365,1.0,-6.23,20.6,ASHRAETau
Environment:WarmupDays,  6
 Warmup Convergence Information,THERMAL ZONE 11,SizingPeriod: PHILADELPHIA INTERNATIONAL AP ANN CLG 1% CONDNS WB=>MDB,3.0696556767E-003,8.7513132381E-003,Pass,Pass,0.2979417376,1.0203393324,Pass,Pass
 Warmup Convergence Information,THERMAL ZONE 7,SizingPeriod: PHILADELPHIA INTERNATIONAL AP ANN CLG 1% CONDNS WB=>MDB,8.3958905962E-002,0.1396058401,Pass,Pass,0.4735119711,2.7936153338,Pass,Pass
 Warmup Convergence Information,THERMAL ZONE 5,SizingPeriod: PHILADELPHIA INTERNATIONAL AP ANN CLG 1% CONDNS WB=>MDB,5.7667173241E-002,2.9159764301E-002,Pass,Pass,1.5505134059E-002,2.6246836025E-002,Pass,Pass
 Warmup Convergence Information,THERMAL ZONE 14,SizingPeriod: PHILADELPHIA INTERNATIONAL AP ANN CLG 1% CONDNS WB=>MDB,4.5978902724E-002,1.7693863359E-002,Pass,Pass,3.4343687941E-003,1.2901501139E-003,Pass,Pass
 Warmup Convergence Information,THERMAL ZONE 24,SizingPeriod: PHILADELPHIA INTERNATIONAL AP ANN CLG 1% CONDNS WB=>MDB,8.3469167230E-002,9.9044130399E-002,Pass,Pass,3.4315451446E-002,3.4673349712E-002,Pass,Pass
 Warmup Convergence Information,THERMAL ZONE 22,SizingPeriod: PHILADELPHIA INTERNATIONAL AP ANN CLG 1% CONDNS WB=>MDB,8.3412373436E-002,7.8867755837E-002,Pass,Pass,2.2373023283E-002,2.1772712831E-002,Pass,Pass
 Warmup Convergence Information,THERMAL ZONE 18,SizingPeriod: PHILADELPHIA INTERNATIONAL AP ANN CLG 1% CONDNS WB=>MDB,8.3392699398E-002,7.8601266717E-002,Pass,Pass,2.1661755662E-002,2.1783606873E-002,Pass,Pass
 Warmup Convergence Information,THERMAL ZONE 4,SizingPeriod: PHILADELPHIA INTERNATIONAL AP ANN CLG 1% CONDNS WB=>MDB,5.6511626179E-002,7.8583060387E-002,Pass,Pass,0.2231166851,0.7088455925,Pass,Pass
 Warmup Convergence Information,THERMAL ZONE 15,SizingPeriod: PHILADELPHIA INTERNATIONAL AP ANN CLG 1% CONDNS WB=>MDB,4.5056212979E-002,1.7421083443E-002,Pass,Pass,3.3571580970E-003,1.2684684853E-003,Pass,Pass
 Warmup Convergence Information,THERMAL ZONE 10,SizingPeriod: PHILADELPHIA INTERNATIONAL AP ANN CLG 1% CONDNS WB=>MDB,8.3416899434E-002,8.2144219485E-002,Pass,Pass,2.9002251151E-002,3.0759612980E-002,Pass,Pass
[...]
 Warmup Convergence Information,THERMAL ZONE 18,SizingPeriod: PHILADELPHIA INTERNATIONAL AP ANN CLG 1% CONDNS ENTH=>MDB,8.3399720050E-002,7.8671825943E-002,Pass,Pass,2.2369423561E-002,2.2001966785E-002,Pass,Pass
 Warmup Convergence Information,THERMAL ZONE 4,SizingPeriod: PHILADELPHIA INTERNATIONAL AP ANN CLG 1% CONDNS ENTH=>MDB,5.6298985747E-002,7.8376028049E-002,Pass,Pass,0.4451328319,2.8517043188,Pass,Pass
 Warmup Convergence Information,THERMAL ZONE 15,SizingPeriod: PHILADELPHIA INTERNATIONAL AP ANN CLG 1% CONDNS ENTH=>MDB,4.5189466503E-002,1.7538202484E-002,Pass,Pass,3.3802966751E-003,1.2728214164E-003,Pass,Pass
 Warmup Convergence Information,THERMAL ZONE 10,SizingPeriod: PHILADELPHIA INTERNATIONAL AP ANN CLG 1% CONDNS ENTH=>MDB,8.3431355406E-002,8.2169536643E-002,Pass,Pass,2.9922781199E-002,3.2807797006E-002,Pass,Pass
 Warmup Convergence Information,THERMAL ZONE 17,SizingPeriod: PHILADELPHIA INTERNATIONAL AP ANN CLG 1% CONDNS ENTH=>MDB,5.3058694829E-002,3.2603027718E-002,Pass,Pass,1.9420905400E-002,2.9049064293E-002,Pass,Pass
 Warmup Convergence Information,THERMAL ZONE 25,SizingPeriod: PHILADELPHIA INTERNATIONAL AP ANN CLG 1% CONDNS ENTH=>MDB,8.3418254104E-002,7.7401070172E-002,Pass,Pass,2.2149997843E-002,2.4131116602E-002,Pass,Pass
 Warmup Convergence Information,THERMAL ZONE 23,SizingPeriod: PHILADELPHIA INTERNATIONAL AP ANN CLG 1% CONDNS ENTH=>MDB,6.2357155084E-002,8.7542851336E-002,Pass,Pass,0.1784139381,0.4533447042,Pass,Pass
 Warmup Convergence Information,THERMAL ZONE 12,SizingPeriod: PHILADELPHIA INTERNATIONAL AP ANN CLG 1% CONDNS ENTH=>MDB,8.3479704426E-002,9.5291903421E-002,Pass,Pass,2.8890855437E-002,3.3404996057E-002,Pass,Pass
 Warmup Convergence Information,THERMAL ZONE 3,SizingPeriod: PHILADELPHIA INTERNATIONAL AP ANN CLG 1% CONDNS ENTH=>MDB,8.3399345167E-002,9.1864066659E-002,Pass,Pass,2.5987864970E-002,3.3193455733E-002,Pass,Pass
 Warmup Convergence Information,THERMAL ZONE 20,SizingPeriod: PHILADELPHIA INTERNATIONAL AP ANN CLG 1% CONDNS ENTH=>MDB,8.3503023073E-002,9.5555431335E-002,Pass,Pass,2.9250834411E-002,3.3106573429E-002,Pass,Pass
 Warmup Convergence Information,THERMAL ZONE 13,SizingPeriod: PHILADELPHIA INTERNATIONAL AP ANN CLG 1% CONDNS ENTH=>MDB,7.3164988049E-004,1.2514879570E-003,Pass,Pass,0.2079866267,0.4974828441,Pass,Pass
 Warmup Convergence Information,THERMAL ZONE 8,SizingPeriod: PHILADELPHIA INTERNATIONAL AP ANN CLG 1% CONDNS ENTH=>MDB,8.3413694360E-002,9.2787958830E-002,Pass,Pass,3.3142428003E-002,4.4277429035E-002,Pass,Pass
 Warmup Convergence Information,THERMAL ZONE 21,SizingPeriod: PHILADELPHIA INTERNATIONAL AP ANN CLG 1% CONDNS ENTH=>MDB,4.9044886238E-002,1.8857834688E-002,Pass,Pass,3.8026421566E-003,1.4170858271E-003,Pass,Pass
 Warmup Convergence Information,THERMAL ZONE 19,SizingPeriod: PHILADELPHIA INTERNATIONAL AP ANN CLG 1% CONDNS ENTH=>MDB,8.3509895158E-002,9.6081122789E-002,Pass,Pass,3.0014026719E-002,3.2016846807E-002,Pass,Pass
 Warmup Convergence Information,THERMAL ZONE 16,SizingPeriod: PHILADELPHIA INTERNATIONAL AP ANN CLG 1% CONDNS ENTH=>MDB,5.1107611915E-002,3.5688544996E-002,Pass,Pass,2.8935523033E-002,4.1015190561E-002,Pass,Pass
 Warmup Convergence Information,THERMAL ZONE 6,SizingPeriod: PHILADELPHIA INTERNATIONAL AP ANN CLG 1% CONDNS ENTH=>MDB,8.3392268120E-002,8.8900706873E-002,Pass,Pass,2.3601403895E-002,3.2270138898E-002,Pass,Pass
 Warmup Convergence Information,THERMAL ZONE 1,SizingPeriod: PHILADELPHIA INTERNATIONAL AP ANN CLG 1% CONDNS ENTH=>MDB,5.7119998514E-002,3.0502407693E-002,Pass,Pass,1.7369760672E-002,2.8880851086E-002,Pass,Pass
 Warmup Convergence Information,THERMAL ZONE 2,SizingPeriod: PHILADELPHIA INTERNATIONAL AP ANN CLG 1% CONDNS ENTH=>MDB,4.6768497780E-002,1.9516531981E-002,Pass,Pass,3.5643775643E-003,1.4550972319E-003,Pass,Pass
 Warmup Convergence Information,THERMAL ZONE 9,SizingPeriod: PHILADELPHIA INTERNATIONAL AP ANN CLG 1% CONDNS ENTH=>MDB,8.3383595147E-002,9.1800565760E-002,Pass,Pass,2.5220047078E-002,3.2985772935E-002,Pass,Pass
Environment,PHILADELPHIA INTERNATIONAL AP ANN HUM_N 99% CONDNS DP=>MCDB,SizingPeriod:DesignDay,01/21,01/21,WinterDesignDay,1,N/A,N/A,N/A,N/A,N/A,N/A
Environment:Daylight Saving,No,SizingPeriod:DesignDay
Environment:Design Day Data,-6.70,0.00,DefaultMultipliers,101301,290,5.2,0.00,No ,No 
Environment:Design_Day_Misc, 21,1229.0,0.1415,5.7310E-002,1.0,-11.15,-20.1,ASHRAEClearSky
Environment:WarmupDays,  6
 Warmup Convergence Information,THERMAL ZONE 11,SizingPeriod: PHILADELPHIA INTERNATIONAL AP ANN HUM_N 99% CONDNS DP=>MCDB,1.5711404260E-005,1.1426645155E-005,Pass,Pass,1.3316084059E-005,8.9081861823E-006,Pass,Pass
 Warmup Convergence Information,THERMAL ZONE 7,SizingPeriod: PHILADELPHIA INTERNATIONAL AP ANN HUM_N 99% CONDNS DP=>MCDB,1.5480299984E-005,1.1257442518E-005,Pass,Pass,1.3156534790E-005,8.8015696725E-006,Pass,Pass
 Warmup Convergence Information,THERMAL ZONE 5,SizingPeriod: PHILADELPHIA INTERNATIONAL AP ANN HUM_N 99% CONDNS DP=>MCDB,1.3424368247E-005,9.5708079677E-006,Pass,Pass,1.2651050870E-005,8.4864051810E-006,Pass,Pass
 Warmup Convergence Information,THERMAL ZONE 14,SizingPeriod: PHILADELPHIA INTERNATIONAL AP ANN HUM_N 99% CONDNS DP=>MCDB,1.3496575687E-005,7.1760785264E-006,Pass,Pass,1.1237486969E-005,7.9735676120E-006,Pass,Pass
 Warmup Convergence Information,THERMAL ZONE 24,SizingPeriod: PHILADELPHIA INTERNATIONAL AP ANN HUM_N 99% CONDNS DP=>MCDB,1.7589056315E-006,1.0299861716E-006,Pass,Pass,1.3272445420E-006,8.9159042000E-007,Pass,Pass
 Warmup Convergence Information,THERMAL ZONE 22,SizingPeriod: PHILADELPHIA INTERNATIONAL AP ANN HUM_N 99% CONDNS DP=>MCDB,3.6517365196E-003,2.2462802632E-003,Pass,Pass,3.3970268365E-003,2.3547437846E-003,Pass,Pass
 Warmup Convergence Information,THERMAL ZONE 18,SizingPeriod: PHILADELPHIA INTERNATIONAL AP ANN HUM_N 99% CONDNS DP=>MCDB,4.6443077102E-003,1.0338528835E-005,Pass,Pass,4.9733345415E-003,1.5227278461E-005,Pass,Pass
 Warmup Convergence Information,THERMAL ZONE 4,SizingPeriod: PHILADELPHIA INTERNATIONAL AP ANN HUM_N 99% CONDNS DP=>MCDB,1.5501738671E-005,1.1273805956E-005,Pass,Pass,1.3229137891E-005,8.8503700572E-006,Pass,Pass
 Warmup Convergence Information,THERMAL ZONE 15,SizingPeriod: PHILADELPHIA INTERNATIONAL AP ANN HUM_N 99% CONDNS DP=>MCDB,6.5587271023E-006,4.2181725054E-006,Pass,Pass,1.1478272600E-005,7.7487338370E-006,Pass,Pass
 Warmup Convergence Information,THERMAL ZONE 10,SizingPeriod: PHILADELPHIA INTERNATIONAL AP ANN HUM_N 99% CONDNS DP=>MCDB,1.1490722193E-005,8.4797201035E-006,Pass,Pass,1.0538768865E-005,7.0442089779E-006,Pass,Pass
 Warmup Convergence Information,THERMAL ZONE 17,SizingPeriod: PHILADELPHIA INTERNATIONAL AP ANN HUM_N 99% CONDNS DP=>MCDB,1.5589726730E-005,1.1499349315E-005,Pass,Pass,1.2893199942E-005,8.6195477246E-006,Pass,Pass
 Warmup Convergence Information,THERMAL ZONE 25,SizingPeriod: PHILADELPHIA INTERNATIONAL AP ANN HUM_N 99% CONDNS DP=>MCDB,1.5162318470E-005,1.1175634934E-005,Pass,Pass,1.2722076321E-005,8.5059422406E-006,Pass,Pass
 Warmup Convergence Information,THERMAL ZONE 23,SizingPeriod: PHILADELPHIA INTERNATIONAL AP ANN HUM_N 99% CONDNS DP=>MCDB,1.5438590720E-005,1.1220832967E-005,Pass,Pass,1.3183208790E-005,8.8197651506E-006,Pass,Pass
 Warmup Convergence Information,THERMAL ZONE 12,SizingPeriod: PHILADELPHIA INTERNATIONAL AP ANN HUM_N 99% CONDNS DP=>MCDB,3.7550889232E-006,2.2443387028E-006,Pass,Pass,2.9864981115E-006,2.0121042668E-006,Pass,Pass
 Warmup Convergence Information,THERMAL ZONE 3,SizingPeriod: PHILADELPHIA INTERNATIONAL AP ANN HUM_N 99% CONDNS DP=>MCDB,4.7624091351E-003,2.0762289938E-003,Pass,Pass,5.1335643632E-003,1.6209630870E-003,Pass,Pass
 Warmup Convergence Information,THERMAL ZONE 20,SizingPeriod: PHILADELPHIA INTERNATIONAL AP ANN HUM_N 99% CONDNS DP=>MCDB,7.6897277647E-006,5.5934168848E-006,Pass,Pass,3.2691981435E-006,2.0737357744E-006,Pass,Pass
 Warmup Convergence Information,THERMAL ZONE 13,SizingPeriod: PHILADELPHIA INTERNATIONAL AP ANN HUM_N 99% CONDNS DP=>MCDB,6.4948242443E-006,4.9932011454E-006,Pass,Pass,1.3759021791E-005,9.2222868491E-006,Pass,Pass
 Warmup Convergence Information,THERMAL ZONE 8,SizingPeriod: PHILADELPHIA INTERNATIONAL AP ANN HUM_N 99% CONDNS DP=>MCDB,5.0150950243E-003,8.4798615662E-006,Pass,Pass,5.2764459203E-003,1.5666017921E-005,Pass,Pass
 Warmup Convergence Information,THERMAL ZONE 21,SizingPeriod: PHILADELPHIA INTERNATIONAL AP ANN HUM_N 99% CONDNS DP=>MCDB,3.6930723540E-006,3.0106676543E-006,Pass,Pass,1.2478566655E-005,8.3655686146E-006,Pass,Pass
 Warmup Convergence Information,THERMAL ZONE 19,SizingPeriod: PHILADELPHIA INTERNATIONAL AP ANN HUM_N 99% CONDNS DP=>MCDB,3.1012506699E-006,2.3802486955E-006,Pass,Pass,2.3612690279E-006,1.5722990187E-006,Pass,Pass
 Warmup Convergence Information,THERMAL ZONE 16,SizingPeriod: PHILADELPHIA INTERNATIONAL AP ANN HUM_N 99% CONDNS DP=>MCDB,1.3544272736E-005,1.0059789397E-005,Pass,Pass,1.2798496211E-005,8.5592516331E-006,Pass,Pass
 Warmup Convergence Information,THERMAL ZONE 6,SizingPeriod: PHILADELPHIA INTERNATIONAL AP ANN HUM_N 99% CONDNS DP=>MCDB,1.3489125458E-005,9.9428912105E-006,Pass,Pass,1.0753371283E-005,7.1720774103E-006,Pass,Pass
 Warmup Convergence Information,THERMAL ZONE 1,SizingPeriod: PHILADELPHIA INTERNATIONAL AP ANN HUM_N 99% CONDNS DP=>MCDB,1.3704154123E-005,9.1643005459E-006,Pass,Pass,1.2579964526E-005,8.5075987395E-006,Pass,Pass
 Warmup Convergence Information,THERMAL ZONE 2,SizingPeriod: PHILADELPHIA INTERNATIONAL AP ANN HUM_N 99% CONDNS DP=>MCDB,5.7811727897E-006,4.6488314694E-006,Pass,Pass,1.3006284283E-005,8.7087613175E-006,Pass,Pass
 Warmup Convergence Information,THERMAL ZONE 9,SizingPeriod: PHILADELPHIA INTERNATIONAL AP ANN HUM_N 99% CONDNS DP=>MCDB,5.0802124014E-003,1.9159203573E-003,Pass,Pass,5.3968709175E-003,1.4940008206E-003,Pass,Pass
Environment,PHILADELPHIA INTERNATIONAL AP ANN CLG .4% CONDNS WB=>MDB,SizingPeriod:DesignDay,07/21,07/21,SummerDesignDay,1,N/A,N/A,N/A,N/A,N/A,N/A
Environment:Daylight Saving,No,SizingPeriod:DesignDay
Environment:Design Day Data,31.40,9.40,DefaultMultipliers,101301,240,5.0,0.00,No ,No 
Environment:Design_Day_Misc,202,1084.4,0.2082,0.1365,1.0,-6.23,20.6,ASHRAETau
Environment:WarmupDays,  6
 Warmup Convergence Information,THERMAL ZONE 11,SizingPeriod: PHILADELPHIA INTERNATIONAL AP ANN CLG .4% CONDNS WB=>MDB,6.4471902650E-003,1.9088932807E-002,Pass,Pass,0.4210920066,2.3899357740,Pass,Pass
 Warmup Convergence Information,THERMAL ZONE 7,SizingPeriod: PHILADELPHIA INTERNATIONAL AP ANN CLG .4% CONDNS WB=>MDB,8.3987721331E-002,0.1409395832,Pass,Pass,0.3600829152,1.4480756251,Pass,Pass
 Warmup Convergence Information,THERMAL ZONE 5,SizingPeriod: PHILADELPHIA INTERNATIONAL AP ANN CLG .4% CONDNS WB=>MDB,6.5063903938E-002,2.2247352711E-002,Pass,Pass,7.4909118561E-003,1.0084791364E-002,Pass,Pass
 Warmup Convergence Information,THERMAL ZONE 14,SizingPeriod: PHILADELPHIA INTERNATIONAL AP ANN CLG .4% CONDNS WB=>MDB,4.5284022393E-002,1.7402058311E-002,Pass,Pass,3.2839926726E-003,1.2534029301E-003,Pass,Pass
 Warmup Convergence Information,THERMAL ZONE 24,SizingPeriod: PHILADELPHIA INTERNATIONAL AP ANN CLG .4% CONDNS WB=>MDB,8.3454173511E-002,9.4919319609E-002,Pass,Pass,3.0058611418E-002,3.4468919233E-002,Pass,Pass
 Warmup Convergence Information,THERMAL ZONE 22,SizingPeriod: PHILADELPHIA INTERNATIONAL AP ANN CLG .4% CONDNS WB=>MDB,8.3346743854E-002,7.6395064061E-002,Pass,Pass,1.8271241093E-002,1.9391405851E-002,Pass,Pass
 Warmup Convergence Information,THERMAL ZONE 18,SizingPeriod: PHILADELPHIA INTERNATIONAL AP ANN CLG .4% CONDNS WB=>MDB,8.3301233870E-002,7.5294774905E-002,Pass,Pass,1.7524797470E-002,1.9818394315E-002,Pass,Pass
 Warmup Convergence Information,THERMAL ZONE 4,SizingPeriod: PHILADELPHIA INTERNATIONAL AP ANN CLG .4% CONDNS WB=>MDB,6.0887261055E-002,8.1953113361E-002,Pass,Pass,0.1753722730,0.4040801205,Pass,Pass
 Warmup Convergence Information,THERMAL ZONE 15,SizingPeriod: PHILADELPHIA INTERNATIONAL AP ANN CLG .4% CONDNS WB=>MDB,4.4287590677E-002,1.7081629988E-002,Pass,Pass,3.1997733948E-003,1.2259695993E-003,Pass,Pass
 Warmup Convergence Information,THERMAL ZONE 10,SizingPeriod: PHILADELPHIA INTERNATIONAL AP ANN CLG .4% CONDNS WB=>MDB,8.3367823138E-002,8.1173694812E-002,Pass,Pass,2.4169123264E-002,2.2947213122E-002,Pass,Pass
 Warmup Convergence Information,THERMAL ZONE 17,SizingPeriod: PHILADELPHIA INTERNATIONAL AP ANN CLG .4% CONDNS WB=>MDB,6.1535270672E-002,2.4973822944E-002,Pass,Pass,1.0054832071E-002,1.5898206898E-002,Pass,Pass
 Warmup Convergence Information,THERMAL ZONE 25,SizingPeriod: PHILADELPHIA INTERNATIONAL AP ANN CLG .4% CONDNS WB=>MDB,8.3328558600E-002,7.4811438696E-002,Pass,Pass,1.6940851384E-002,2.0911137123E-002,Pass,Pass
 Warmup Convergence Information,THERMAL ZONE 23,SizingPeriod: PHILADELPHIA INTERNATIONAL AP ANN CLG .4% CONDNS WB=>MDB,6.6836666742E-002,8.9700681333E-002,Pass,Pass,0.4167529952,2.0062844591,Pass,Pass
 Warmup Convergence Information,THERMAL ZONE 12,SizingPeriod: PHILADELPHIA INTERNATIONAL AP ANN CLG .4% CONDNS WB=>MDB,8.3394521818E-002,8.9124970139E-002,Pass,Pass,2.4607457078E-002,3.2463637801E-002,Pass,Pass
 Warmup Convergence Information,THERMAL ZONE 3,SizingPeriod: PHILADELPHIA INTERNATIONAL AP ANN CLG .4% CONDNS WB=>MDB,8.3349054914E-002,9.2979311636E-002,Pass,Pass,2.1135219836E-002,2.4895817951E-002,Pass,Pass
 Warmup Convergence Information,THERMAL ZONE 20,SizingPeriod: PHILADELPHIA INTERNATIONAL AP ANN CLG .4% CONDNS WB=>MDB,8.3394733871E-002,8.9894683639E-002,Pass,Pass,2.5066153341E-002,3.2621346364E-002,Pass,Pass
 Warmup Convergence Information,THERMAL ZONE 13,SizingPeriod: PHILADELPHIA INTERNATIONAL AP ANN CLG .4% CONDNS WB=>MDB,3.0462758789E-003,7.3071838272E-003,Pass,Pass,0.3107588776,1.4144215040,Pass,Pass
 Warmup Convergence Information,THERMAL ZONE 8,SizingPeriod: PHILADELPHIA INTERNATIONAL AP ANN CLG .4% CONDNS WB=>MDB,8.3364767841E-002,9.4824555290E-002,Pass,Pass,2.7083711919E-002,3.3616911871E-002,Pass,Pass
 Warmup Convergence Information,THERMAL ZONE 21,SizingPeriod: PHILADELPHIA INTERNATIONAL AP ANN CLG .4% CONDNS WB=>MDB,4.8784425210E-002,1.8628612596E-002,Pass,Pass,3.6680718657E-003,1.3938129713E-003,Pass,Pass
 Warmup Convergence Information,THERMAL ZONE 19,SizingPeriod: PHILADELPHIA INTERNATIONAL AP ANN CLG .4% CONDNS WB=>MDB,8.3393919015E-002,9.0242593774E-002,Pass,Pass,2.5212519080E-002,3.2865494174E-002,Pass,Pass
 Warmup Convergence Information,THERMAL ZONE 16,SizingPeriod: PHILADELPHIA INTERNATIONAL AP ANN CLG .4% CONDNS WB=>MDB,5.7823102275E-002,3.1389512226E-002,Pass,Pass,1.7690721439E-002,2.8370343294E-002,Pass,Pass
 Warmup Convergence Information,THERMAL ZONE 6,SizingPeriod: PHILADELPHIA INTERNATIONAL AP ANN CLG .4% CONDNS WB=>MDB,8.3341356956E-002,9.0268543773E-002,Pass,Pass,1.8328020498E-002,2.2459683630E-002,Pass,Pass
 Warmup Convergence Information,THERMAL ZONE 1,SizingPeriod: PHILADELPHIA INTERNATIONAL AP ANN CLG .4% CONDNS WB=>MDB,6.4826196216E-002,2.3482388376E-002,Pass,Pass,8.1700352384E-003,1.4510002391E-002,Pass,Pass
 Warmup Convergence Information,THERMAL ZONE 2,SizingPeriod: PHILADELPHIA INTERNATIONAL AP ANN CLG .4% CONDNS WB=>MDB,4.6001167453E-002,1.9094256065E-002,Pass,Pass,3.3834485405E-003,1.4014049690E-003,Pass,Pass
 Warmup Convergence Information,THERMAL ZONE 9,SizingPeriod: PHILADELPHIA INTERNATIONAL AP ANN CLG .4% CONDNS WB=>MDB,8.3356908645E-002,9.2590492146E-002,Pass,Pass,2.0375592486E-002,2.4128087351E-002,Pass,Pass
Environment,RUN PERIOD 1,WeatherFileRunPeriod,01/01,12/31,Thursday,365,Use RunPeriod Specified Day,Yes,Yes,No ,Yes,Yes
Environment:Daylight Saving,Yes,InputFile,03/08,11/01
Environment:WarmupDays,  6
 Warmup Convergence Information,THERMAL ZONE 11,RunPeriod: RUN PERIOD 1,2.4542792996E-003,2.1243177880E-003,Pass,Pass,8.2822523695E-003,7.3533231633E-003,Pass,Pass
 Warmup Convergence Information,THERMAL ZONE 7,RunPeriod: RUN PERIOD 1,2.2156428953E-003,1.8471958431E-003,Pass,Pass,0.3047097522,1.5888987287,Pass,Pass
 Warmup Convergence Information,THERMAL ZONE 5,RunPeriod: RUN PERIOD 1,2.1505620802E-003,1.6073177296E-003,Pass,Pass,1.0138535941E-002,7.1847628893E-003,Pass,Pass
 Warmup Convergence Information,THERMAL ZONE 14,RunPeriod: RUN PERIOD 1,4.6700318662E-004,4.0384063354E-004,Pass,Pass,0.2014486389,0.6893732061,Pass,Pass
 Warmup Convergence Information,THERMAL ZONE 24,RunPeriod: RUN PERIOD 1,1.4884434060E-003,1.2223044567E-003,Pass,Pass,0.1744832857,0.7448305899,Pass,Pass
 Warmup Convergence Information,THERMAL ZONE 22,RunPeriod: RUN PERIOD 1,4.5940370001E-002,8.9521419287E-002,Pass,Pass,0.1788259675,0.4661330155,Pass,Pass
 Warmup Convergence Information,THERMAL ZONE 18,RunPeriod: RUN PERIOD 1,4.4270211355E-002,8.8734697864E-002,Pass,Pass,0.3728988736,2.2022897332,Pass,Pass
 Warmup Convergence Information,THERMAL ZONE 4,RunPeriod: RUN PERIOD 1,3.1398776553E-002,6.7889937544E-002,Pass,Pass,0.1820449205,0.6206424986,Pass,Pass
 Warmup Convergence Information,THERMAL ZONE 15,RunPeriod: RUN PERIOD 1,5.2969140210E-004,4.2074830327E-004,Pass,Pass,0.1815156505,0.5803639116,Pass,Pass
 Warmup Convergence Information,THERMAL ZONE 10,RunPeriod: RUN PERIOD 1,4.8255145807E-002,9.3289592160E-002,Pass,Pass,0.1764050996,0.4663541203,Pass,Pass
 Warmup Convergence Information,THERMAL ZONE 17,RunPeriod: RUN PERIOD 1,2.3346216593E-003,1.7574117059E-003,Pass,Pass,8.6123281031E-003,6.7301078282E-003,Pass,Pass
 Warmup Convergence Information,THERMAL ZONE 25,RunPeriod: RUN PERIOD 1,3.0188094648E-002,6.6758456250E-002,Pass,Pass,0.2194833298,0.7614397915,Pass,Pass
 Warmup Convergence Information,THERMAL ZONE 23,RunPeriod: RUN PERIOD 1,2.1059761348E-003,1.7705987839E-003,Pass,Pass,2.9036985073E-002,4.2935791882E-002,Pass,Pass
 Warmup Convergence Information,THERMAL ZONE 12,RunPeriod: RUN PERIOD 1,2.1211487989E-003,1.3990731711E-003,Pass,Pass,0.1483381344,0.5421798658,Pass,Pass
 Warmup Convergence Information,THERMAL ZONE 3,RunPeriod: RUN PERIOD 1,1.9493606043E-003,1.5489801727E-003,Pass,Pass,3.0642089480E-002,3.9079269114E-002,Pass,Pass
 Warmup Convergence Information,THERMAL ZONE 20,RunPeriod: RUN PERIOD 1,1.7866743157E-003,1.2696928742E-003,Pass,Pass,0.2613072345,1.5694525133,Pass,Pass
 Warmup Convergence Information,THERMAL ZONE 13,RunPeriod: RUN PERIOD 1,4.3245258196E-003,6.5529224184E-003,Pass,Pass,1.5555439815E-002,1.7356271165E-002,Pass,Pass
 Warmup Convergence Information,THERMAL ZONE 8,RunPeriod: RUN PERIOD 1,1.7362618634E-003,1.4121131497E-003,Pass,Pass,2.9986875527E-002,3.8790707553E-002,Pass,Pass
 Warmup Convergence Information,THERMAL ZONE 21,RunPeriod: RUN PERIOD 1,4.2782444213E-004,3.7044008993E-004,Pass,Pass,0.2286255252,0.8218771212,Pass,Pass
 Warmup Convergence Information,THERMAL ZONE 19,RunPeriod: RUN PERIOD 1,2.4008288101E-003,1.6735191510E-003,Pass,Pass,0.2131647710,0.8961566687,Pass,Pass
 Warmup Convergence Information,THERMAL ZONE 16,RunPeriod: RUN PERIOD 1,2.0339105451E-003,1.6762392295E-003,Pass,Pass,1.0153419442E-002,6.7647907261E-003,Pass,Pass
 Warmup Convergence Information,THERMAL ZONE 6,RunPeriod: RUN PERIOD 1,2.1738951231E-003,1.8452406020E-003,Pass,Pass,2.4196987924E-002,2.9791170504E-002,Pass,Pass
 Warmup Convergence Information,THERMAL ZONE 1,RunPeriod: RUN PERIOD 1,2.1416544026E-003,1.5125254312E-003,Pass,Pass,1.0176039340E-002,7.1851478706E-003,Pass,Pass
 Warmup Convergence Information,THERMAL ZONE 2,RunPeriod: RUN PERIOD 1,8.6242355321E-004,6.5366926390E-004,Pass,Pass,2.5112190873E-002,1.7877014672E-002,Pass,Pass
 Warmup Convergence Information,THERMAL ZONE 9,RunPeriod: RUN PERIOD 1,2.0230458193E-003,1.6637687636E-003,Pass,Pass,2.9602300463E-002,3.8566305724E-002,Pass,Pass
! <Program Control Information:Threads/Parallel Sims>, Threading Supported,Maximum Number of Threads, Env Set Threads (OMP_NUM_THREADS), EP Env Set Threads (EP_OMP_NUM_THREADS), IDF Set Threads, Number of Threads Used (Interior Radiant Exchange), Number Nominal Surfaces, Number Parallel Sims
Program Control:Threads/Parallel Sims, Yes,1, Not Set, Not Set, 1, 1, 170, N/A
End of Data
