Program Version,EnergyPlus-Linux-OMP-32 7.2.0.006, YMD=2013.07.09 16:42
! <Version>, Version ID
 Version, 7.2
! <Timesteps per Hour>, #TimeSteps, Minutes per TimeStep {minutes}
 Timesteps per Hour,  4, 15
! <System Convergence Limits>, Minimum System TimeStep {minutes}, Max HVAC Iterations,  Minimum Plant Iterations, Maximum Plant Iterations
 System Convergence Limits, 1, 20, 2, 8
! <Simulation Control>, Do Zone Sizing, Do System Sizing, Do Plant Sizing, Do Design Days, Do Weather Simulation
 Simulation Control, Yes, Yes, Yes, Yes, Yes
! <Output Reporting Tolerances>, Tolerance for Time Heating Setpoint Not Met, Tolerance for Time Cooling Setpoint Not Met
 Output Reporting Tolerances, 0.200, 0.200, 
! <Site:GroundTemperature:BuildingSurface>, Months From Jan to Dec {Deg C}
 Site:GroundTemperature:BuildingSurface,  18.00,  18.00,  18.00,  18.00,  18.00,  18.00,  18.00,  18.00,  18.00,  18.00,  18.00,  18.00
! <Site:GroundTemperature:FCfactorMethod>, Months From Jan to Dec {Deg C}
 Site:GroundTemperature:FCfactorMethod,   1.62,   0.54,   2.47,   5.49,  13.39,  19.49,  23.60,  24.85,  22.72,  17.98,  11.66,   5.79
! <Site:GroundTemperature:Shallow>, Months From Jan to Dec {Deg C}
 Site:GroundTemperature:Shallow,  13.00,  13.00,  13.00,  13.00,  13.00,  13.00,  13.00,  13.00,  13.00,  13.00,  13.00,  13.00
! <Site:GroundTemperature:Deep>, Months From Jan to Dec {Deg C}
 Site:GroundTemperature:Deep,  16.00,  16.00,  16.00,  16.00,  16.00,  16.00,  16.00,  16.00,  16.00,  16.00,  16.00,  16.00
! <Site:GroundReflectance>, Months From Jan to Dec {dimensionless}
 Site:GroundReflectance,  0.20,  0.20,  0.20,  0.20,  0.20,  0.20,  0.20,  0.20,  0.20,  0.20,  0.20,  0.20
! <Site:GroundReflectance:SnowModifier>, Normal, Daylighting {dimensionless}
 Site:GroundReflectance:SnowModifier,   1.000,   1.000
! <Site:GroundReflectance:Snow>, Months From Jan to Dec {dimensionless}
 Site:GroundReflectance:Snow,  0.20,  0.20,  0.20,  0.20,  0.20,  0.20,  0.20,  0.20,  0.20,  0.20,  0.20,  0.20
! <Site:GroundReflectance:Snow:Daylighting>, Months From Jan to Dec {dimensionless}
 Site:GroundReflectance:Snow:Daylighting,  0.20,  0.20,  0.20,  0.20,  0.20,  0.20,  0.20,  0.20,  0.20,  0.20,  0.20,  0.20
! <Environment:Weather Station>,Wind Sensor Height Above Ground {m},Wind Speed Profile Exponent {},Wind Speed Profile Boundary Layer Thickness {m},Air Temperature Sensor Height Above Ground {m},Wind Speed Modifier Coefficient [Internal],Temperature Modifier Coefficient [Internal]
Environment:Weather Station,10.000,0.140,270.000,1.500,1.586,9.750E-003
! <Site:Location>, Location Name, Latitude {N+/S- Deg}, Longitude {E+/W- Deg},  Time Zone Number {GMT+/-}, Elevation {m},  Standard Pressure at Elevation {Pa}, Standard RhoAir at Elevation
Site:Location,Philadelphia International Ap PA USA TMY3 WMO#=724080,39.87,-75.23,-5.00,2.00,101301,1.2040
! <Building Information>, Building Name,North Axis {deg},Terrain,  Loads Convergence Tolerance Value,Temperature Convergence Tolerance Value,  Solar Distribution,Maximum Number of Warmup Days,Minimum Number of Warmup Days
 Building Information,Building 1,0.000,Suburbs,4.00000E-002,0.40000,FullExterior,25,6
! <Inside Convection Algorithm>, Algorithm {Simple | TARP | CeilingDiffuser | AdaptiveConvectionAlgorithm}
Inside Convection Algorithm,TARP
! <Outside Convection Algorithm>, Algorithm {SimpleCombined | TARP | MoWitt | DOE-2 | AdaptiveConvectionAlgorithm}
Outside Convection Algorithm,DOE-2
! <Sky Radiance Distribution>, Value {Anisotropic}
Sky Radiance Distribution,Anisotropic
! <Zone Air Solution Algorithm>, Value {ThirdOrderBackwardDifference | AnalyticalSolution | EulerMethod}
 Zone Air Solution Algorithm, ThirdOrderBackwardDifference
! <Zone Air Contaminant Balance Simulation>, Simulation {Yes/No}, Carbon Dioxide Concentration
 Zone Air Carbon Dioxide Balance Simulation, No,N/A
! <Zone Air Contaminant Balance Simulation>, Simulation {Yes/No}, Generic Contaminant Concentration
 Zone Air Generic Contaminant Balance Simulation, No,N/A
! <Environment:Site Atmospheric Variation>,Wind Speed Profile Exponent {},Wind Speed Profile Boundary Layer Thickness {m},Air Temperature Gradient Coefficient {K/m}
Environment:Site Atmospheric Variation,0.220,370.000,6.500000E-003
! <SurfaceGeometry>,Starting Corner,Vertex Input Direction,Coordinate System,Daylight Reference Point Coordinate System,Rectangular (Simple) Surface Coordinate System
 Surface Geometry,UpperLeftCorner,Counterclockwise,RelativeCoordinateSystem,RelativeCoordinateSystem,RelativeToZoneOrigin
! <Surface Heat Transfer Algorithm>, Value {CTF - ConductionTransferFunction | EMPD - MoisturePenetrationDepthConductionTransferFunction | CondFD - ConductionFiniteDifference | HAMT - CombinedHeatAndMoistureFiniteElement} - Description,Inside Surface Max Temperature Limit{C}, Surface Convection Coefficient Lower Limit {W/m2-K}, Surface Convection Coefficient Upper Limit {W/m2-K}
Surface Heat Transfer Algorithm, CTF - ConductionTransferFunction,200,0.10,1000.0
! <Shading Summary>, Number of Fixed Detached Shades, Number of Building Detached Shades, Number of Attached Shades
 Shading Summary,0,0,0
! <Zone Summary>, Number of Zones, Number of Zone Surfaces, Number of SubSurfaces
 Zone Summary,25,170,20
! <Zone Information>,Zone Name,North Axis {deg},Origin X-Coordinate {m},Origin Y-Coordinate {m},Origin Z-Coordinate {m},Centroid X-Coordinate {m},Centroid Y-Coordinate {m},Centroid Z-Coordinate {m},Type,Zone Multiplier,Zone List Multiplier,Minimum X {m},Maximum X {m},Minimum Y {m},Maximum Y {m},Minimum Z {m},Maximum Z {m},Ceiling Height {m},Volume {m3},Zone Inside Convection Algorithm {Simple-Detailed-CeilingDiffuser-TrombeWall},Zone Outside Convection Algorithm {Simple-Detailed-Tarp-MoWitt-DOE-2-BLAST}, Floor Area {m2},Exterior Gross Wall Area {m2},Exterior Net Wall Area {m2},Exterior Window Area {m2}, Number of Surfaces, Number of SubSurfaces, Number of Shading SubSurfaces,  Part of Total Building Area
 Zone Information, THERMAL ZONE 14,0.0,3.00,3.00,16.00,7.07,7.07,18.00,1,1,1,3.00,11.14,3.00,11.14,16.00,20.00,4.00,265.18,TARP,DOE-2,66.29,0.00,0.00,0.00,6,0,0,Yes
 Zone Information, THERMAL ZONE 15,0.0,0.00,0.00,0.00,7.07,1.26,2.00,1,1,1,0.00,14.14,0.00,3.00,0.00,4.00,4.00,133.71,TARP,DOE-2,33.43,56.57,50.91,5.66,6,1,0,Yes
 Zone Information, THERMAL ZONE 9,0.0,0.00,0.00,16.00,1.26,7.07,18.00,1,1,1,0.00,3.00,0.00,14.14,16.00,20.00,4.00,133.71,TARP,DOE-2,33.43,56.57,50.91,5.66,6,1,0,Yes
 Zone Information, THERMAL ZONE 1,0.0,3.00,3.00,8.00,7.07,7.07,10.00,1,1,1,3.00,11.14,3.00,11.14,8.00,12.00,4.00,265.18,TARP,DOE-2,66.29,0.00,0.00,0.00,6,0,0,Yes
 Zone Information, THERMAL ZONE 18,0.0,11.14,3.00,0.00,12.88,7.07,2.00,1,1,1,11.14,14.14,0.00,14.14,0.00,4.00,4.00,133.71,TARP,DOE-2,33.43,56.57,50.91,5.66,6,1,0,Yes
 Zone Information, THERMAL ZONE 17,0.0,3.00,11.14,4.00,7.07,12.88,6.00,1,1,1,0.00,14.14,11.14,14.14,4.00,8.00,4.00,133.71,TARP,DOE-2,33.43,56.57,50.91,5.66,6,1,0,Yes
 Zone Information, THERMAL ZONE 24,0.0,3.00,11.14,12.00,7.07,12.88,14.00,1,1,1,0.00,14.14,11.14,14.14,12.00,16.00,4.00,133.71,TARP,DOE-2,33.43,56.57,50.91,5.66,6,1,0,Yes
 Zone Information, THERMAL ZONE 8,0.0,3.00,11.14,16.00,7.07,12.88,18.00,1,1,1,0.00,14.14,11.14,14.14,16.00,20.00,4.00,133.71,TARP,DOE-2,33.43,56.57,50.91,5.66,6,1,0,Yes
 Zone Information, THERMAL ZONE 25,0.0,3.00,11.14,0.00,7.07,12.88,2.00,1,1,1,0.00,14.14,11.14,14.14,0.00,4.00,4.00,133.71,TARP,DOE-2,33.43,56.57,50.91,5.66,6,1,0,Yes
 Zone Information, THERMAL ZONE 3,0.0,11.14,3.00,4.00,12.88,7.07,6.00,1,1,1,11.14,14.14,0.00,14.14,4.00,8.00,4.00,133.71,TARP,DOE-2,33.43,56.57,50.91,5.66,6,1,0,Yes
 Zone Information, THERMAL ZONE 22,0.0,3.00,3.00,0.00,7.07,7.07,2.00,1,1,1,3.00,11.14,3.00,11.14,0.00,4.00,4.00,265.18,TARP,DOE-2,66.29,0.00,0.00,0.00,6,0,0,Yes
 Zone Information, THERMAL ZONE 12,0.0,3.00,11.14,8.00,7.07,12.88,10.00,1,1,1,0.00,14.14,11.14,14.14,8.00,12.00,4.00,133.71,TARP,DOE-2,33.43,56.57,50.91,5.66,6,1,0,Yes
 Zone Information, THERMAL ZONE 11,0.0,3.00,3.00,12.00,7.07,7.07,14.00,1,1,1,3.00,11.14,3.00,11.14,12.00,16.00,4.00,265.18,TARP,DOE-2,66.29,0.00,0.00,0.00,6,0,0,Yes
 Zone Information, THERMAL ZONE 16,0.0,3.00,3.00,4.00,7.07,7.07,6.00,1,1,1,3.00,11.14,3.00,11.14,4.00,8.00,4.00,265.18,TARP,DOE-2,66.29,0.00,0.00,0.00,6,0,0,Yes
 Zone Information, THERMAL ZONE 5,0.0,0.00,0.00,12.00,7.07,1.26,14.00,1,1,1,0.00,14.14,0.00,3.00,12.00,16.00,4.00,133.71,TARP,DOE-2,33.43,56.57,50.91,5.66,6,1,0,Yes
 Zone Information, THERMAL ZONE 20,0.0,11.14,3.00,12.00,12.88,7.07,14.00,1,1,1,11.14,14.14,0.00,14.14,12.00,16.00,4.00,133.71,TARP,DOE-2,33.43,56.57,50.91,5.66,6,1,0,Yes
 Zone Information, THERMAL ZONE 21,0.0,0.00,0.00,8.00,1.26,7.07,10.00,1,1,1,0.00,3.00,0.00,14.14,8.00,12.00,4.00,133.71,TARP,DOE-2,33.43,56.57,50.91,5.66,6,1,0,Yes
 Zone Information, THERMAL ZONE 19,0.0,0.00,0.00,0.00,1.26,7.07,2.00,1,1,1,0.00,3.00,0.00,14.14,0.00,4.00,4.00,133.71,TARP,DOE-2,33.43,56.57,50.91,5.66,6,1,0,Yes
 Zone Information, THERMAL ZONE 23,0.0,0.00,0.00,4.00,1.26,7.07,6.00,1,1,1,0.00,3.00,0.00,14.14,4.00,8.00,4.00,133.71,TARP,DOE-2,33.43,56.57,50.91,5.66,6,1,0,Yes
 Zone Information, THERMAL ZONE 13,0.0,0.00,0.00,12.00,1.26,7.07,14.00,1,1,1,0.00,3.00,0.00,14.14,12.00,16.00,4.00,133.71,TARP,DOE-2,33.43,56.57,50.91,5.66,6,1,0,Yes
 Zone Information, THERMAL ZONE 10,0.0,11.14,3.00,16.00,12.88,7.07,18.00,1,1,1,11.14,14.14,0.00,14.14,16.00,20.00,4.00,133.71,TARP,DOE-2,33.43,56.57,50.91,5.66,6,1,0,Yes
 Zone Information, THERMAL ZONE 2,0.0,0.00,0.00,4.00,7.07,1.26,6.00,1,1,1,0.00,14.14,0.00,3.00,4.00,8.00,4.00,133.71,TARP,DOE-2,33.43,56.57,50.91,5.66,6,1,0,Yes
 Zone Information, THERMAL ZONE 6,0.0,11.14,3.00,8.00,12.88,7.07,10.00,1,1,1,11.14,14.14,0.00,14.14,8.00,12.00,4.00,133.71,TARP,DOE-2,33.43,56.57,50.91,5.66,6,1,0,Yes
 Zone Information, THERMAL ZONE 7,0.0,0.00,0.00,16.00,7.07,1.26,18.00,1,1,1,0.00,14.14,0.00,3.00,16.00,20.00,4.00,133.71,TARP,DOE-2,33.43,56.57,50.91,5.66,6,1,0,Yes
 Zone Information, THERMAL ZONE 4,0.0,0.00,0.00,8.00,7.07,1.26,10.00,1,1,1,0.00,14.14,0.00,3.00,8.00,12.00,4.00,133.71,TARP,DOE-2,33.43,56.57,50.91,5.66,6,1,0,Yes
! <Zone Internal Gains/Equipment Information - Nominal>,Zone Name, Floor Area {m2},# Occupants,Area per Occupant {m2/person},Occupant per Area {person/m2},Interior Lighting {W/m2},Electric Load {W/m2},Gas Load {W/m2},Other Load {W/m2},Hot Water Eq {W/m2},Steam Equipment {W/m2},Sum Loads per Area {W/m2},Outdoor Controlled Baseboard Heat
 Zone Internal Gains, THERMAL ZONE 14,66.29,3.6,18.581,5.382E-002,10.764,10.764,0.000,0.000,0.000,0.000,21.528,No
 Zone Internal Gains, THERMAL ZONE 15,33.43,1.8,18.581,5.382E-002,10.764,10.764,0.000,0.000,0.000,0.000,21.528,No
 Zone Internal Gains, THERMAL ZONE 9,33.43,1.8,18.581,5.382E-002,10.764,10.764,0.000,0.000,0.000,0.000,21.528,No
 Zone Internal Gains, THERMAL ZONE 1,66.29,3.6,18.581,5.382E-002,10.764,10.764,0.000,0.000,0.000,0.000,21.528,No
 Zone Internal Gains, THERMAL ZONE 18,33.43,1.8,18.581,5.382E-002,10.764,10.764,0.000,0.000,0.000,0.000,21.528,No
 Zone Internal Gains, THERMAL ZONE 17,33.43,1.8,18.581,5.382E-002,10.764,10.764,0.000,0.000,0.000,0.000,21.528,No
 Zone Internal Gains, THERMAL ZONE 24,33.43,1.8,18.581,5.382E-002,10.764,10.764,0.000,0.000,0.000,0.000,21.528,No
 Zone Internal Gains, THERMAL ZONE 8,33.43,1.8,18.581,5.382E-002,10.764,10.764,0.000,0.000,0.000,0.000,21.528,No
 Zone Internal Gains, THERMAL ZONE 25,33.43,1.8,18.581,5.382E-002,10.764,10.764,0.000,0.000,0.000,0.000,21.528,No
 Zone Internal Gains, THERMAL ZONE 3,33.43,1.8,18.581,5.382E-002,10.764,10.764,0.000,0.000,0.000,0.000,21.528,No
 Zone Internal Gains, THERMAL ZONE 22,66.29,3.6,18.581,5.382E-002,10.764,10.764,0.000,0.000,0.000,0.000,21.528,No
 Zone Internal Gains, THERMAL ZONE 12,33.43,1.8,18.581,5.382E-002,10.764,10.764,0.000,0.000,0.000,0.000,21.528,No
 Zone Internal Gains, THERMAL ZONE 11,66.29,3.6,18.581,5.382E-002,10.764,10.764,0.000,0.000,0.000,0.000,21.528,No
 Zone Internal Gains, THERMAL ZONE 16,66.29,3.6,18.581,5.382E-002,10.764,10.764,0.000,0.000,0.000,0.000,21.528,No
 Zone Internal Gains, THERMAL ZONE 5,33.43,1.8,18.581,5.382E-002,10.764,10.764,0.000,0.000,0.000,0.000,21.528,No
 Zone Internal Gains, THERMAL ZONE 20,33.43,1.8,18.581,5.382E-002,10.764,10.764,0.000,0.000,0.000,0.000,21.528,No
 Zone Internal Gains, THERMAL ZONE 21,33.43,1.8,18.581,5.382E-002,10.764,10.764,0.000,0.000,0.000,0.000,21.528,No
 Zone Internal Gains, THERMAL ZONE 19,33.43,1.8,18.581,5.382E-002,10.764,10.764,0.000,0.000,0.000,0.000,21.528,No
 Zone Internal Gains, THERMAL ZONE 23,33.43,1.8,18.581,5.382E-002,10.764,10.764,0.000,0.000,0.000,0.000,21.528,No
 Zone Internal Gains, THERMAL ZONE 13,33.43,1.8,18.581,5.382E-002,10.764,10.764,0.000,0.000,0.000,0.000,21.528,No
 Zone Internal Gains, THERMAL ZONE 10,33.43,1.8,18.581,5.382E-002,10.764,10.764,0.000,0.000,0.000,0.000,21.528,No
 Zone Internal Gains, THERMAL ZONE 2,33.43,1.8,18.581,5.382E-002,10.764,10.764,0.000,0.000,0.000,0.000,21.528,No
 Zone Internal Gains, THERMAL ZONE 6,33.43,1.8,18.581,5.382E-002,10.764,10.764,0.000,0.000,0.000,0.000,21.528,No
 Zone Internal Gains, THERMAL ZONE 7,33.43,1.8,18.581,5.382E-002,10.764,10.764,0.000,0.000,0.000,0.000,21.528,No
 Zone Internal Gains, THERMAL ZONE 4,33.43,1.8,18.581,5.382E-002,10.764,10.764,0.000,0.000,0.000,0.000,21.528,No
! <People Internal Gains - Nominal>,Name,Schedule Name,Zone Name,Zone Floor Area {m2},# Zone Occupants,Number of People {},People/Floor Area {person/m2},Floor Area per person {m2/person},Fraction Radiant,Fraction Convected,Sensible Fraction Calculation,Activity level,ASHRAE 55 Warnings,Carbon Dioxide Generation Rate 
 People Internal Gains, THERMAL ZONE 1 ASHRAE_90.1-2004 CLIMATEZONE 1-8 MEDIUMOFFICE WHOLEBUILDING PEOPLE,MEDIUM OFFICE_BLDG_OCC,THERMAL ZONE 1,66.29,3.6,3.6,5.382E-002,18.581,0.300,0.700,AutoCalculate,MEDIUM OFFICE_ACTIVITY,No,3.8200E-008
 People Internal Gains, THERMAL ZONE 10 ASHRAE_90.1-2004 CLIMATEZONE 1-8 MEDIUMOFFICE WHOLEBUILDING PEOPLE,MEDIUM OFFICE_BLDG_OCC,THERMAL ZONE 10,33.43,1.8,1.8,5.382E-002,18.581,0.300,0.700,AutoCalculate,MEDIUM OFFICE_ACTIVITY,No,3.8200E-008
 People Internal Gains, THERMAL ZONE 11 ASHRAE_90.1-2004 CLIMATEZONE 1-8 MEDIUMOFFICE WHOLEBUILDING PEOPLE,MEDIUM OFFICE_BLDG_OCC,THERMAL ZONE 11,66.29,3.6,3.6,5.382E-002,18.581,0.300,0.700,AutoCalculate,MEDIUM OFFICE_ACTIVITY,No,3.8200E-008
 People Internal Gains, THERMAL ZONE 12 ASHRAE_90.1-2004 CLIMATEZONE 1-8 MEDIUMOFFICE WHOLEBUILDING PEOPLE,MEDIUM OFFICE_BLDG_OCC,THERMAL ZONE 12,33.43,1.8,1.8,5.382E-002,18.581,0.300,0.700,AutoCalculate,MEDIUM OFFICE_ACTIVITY,No,3.8200E-008
 People Internal Gains, THERMAL ZONE 13 ASHRAE_90.1-2004 CLIMATEZONE 1-8 MEDIUMOFFICE WHOLEBUILDING PEOPLE,MEDIUM OFFICE_BLDG_OCC,THERMAL ZONE 13,33.43,1.8,1.8,5.382E-002,18.581,0.300,0.700,AutoCalculate,MEDIUM OFFICE_ACTIVITY,No,3.8200E-008
 People Internal Gains, THERMAL ZONE 14 ASHRAE_90.1-2004 CLIMATEZONE 1-8 MEDIUMOFFICE WHOLEBUILDING PEOPLE,MEDIUM OFFICE_BLDG_OCC,THERMAL ZONE 14,66.29,3.6,3.6,5.382E-002,18.581,0.300,0.700,AutoCalculate,MEDIUM OFFICE_ACTIVITY,No,3.8200E-008
 People Internal Gains, THERMAL ZONE 15 ASHRAE_90.1-2004 CLIMATEZONE 1-8 MEDIUMOFFICE WHOLEBUILDING PEOPLE,MEDIUM OFFICE_BLDG_OCC,THERMAL ZONE 15,33.43,1.8,1.8,5.382E-002,18.581,0.300,0.700,AutoCalculate,MEDIUM OFFICE_ACTIVITY,No,3.8200E-008
 People Internal Gains, THERMAL ZONE 16 ASHRAE_90.1-2004 CLIMATEZONE 1-8 MEDIUMOFFICE WHOLEBUILDING PEOPLE,MEDIUM OFFICE_BLDG_OCC,THERMAL ZONE 16,66.29,3.6,3.6,5.382E-002,18.581,0.300,0.700,AutoCalculate,MEDIUM OFFICE_ACTIVITY,No,3.8200E-008
 People Internal Gains, THERMAL ZONE 17 ASHRAE_90.1-2004 CLIMATEZONE 1-8 MEDIUMOFFICE WHOLEBUILDING PEOPLE,MEDIUM OFFICE_BLDG_OCC,THERMAL ZONE 17,33.43,1.8,1.8,5.382E-002,18.581,0.300,0.700,AutoCalculate,MEDIUM OFFICE_ACTIVITY,No,3.8200E-008
 People Internal Gains, THERMAL ZONE 18 ASHRAE_90.1-2004 CLIMATEZONE 1-8 MEDIUMOFFICE WHOLEBUILDING PEOPLE,MEDIUM OFFICE_BLDG_OCC,THERMAL ZONE 18,33.43,1.8,1.8,5.382E-002,18.581,0.300,0.700,AutoCalculate,MEDIUM OFFICE_ACTIVITY,No,3.8200E-008
 People Internal Gains, THERMAL ZONE 19 ASHRAE_90.1-2004 CLIMATEZONE 1-8 MEDIUMOFFICE WHOLEBUILDING PEOPLE,MEDIUM OFFICE_BLDG_OCC,THERMAL ZONE 19,33.43,1.8,1.8,5.382E-002,18.581,0.300,0.700,AutoCalculate,MEDIUM OFFICE_ACTIVITY,No,3.8200E-008
 People Internal Gains, THERMAL ZONE 2 ASHRAE_90.1-2004 CLIMATEZONE 1-8 MEDIUMOFFICE WHOLEBUILDING PEOPLE,MEDIUM OFFICE_BLDG_OCC,THERMAL ZONE 2,33.43,1.8,1.8,5.382E-002,18.581,0.300,0.700,AutoCalculate,MEDIUM OFFICE_ACTIVITY,No,3.8200E-008
 People Internal Gains, THERMAL ZONE 20 ASHRAE_90.1-2004 CLIMATEZONE 1-8 MEDIUMOFFICE WHOLEBUILDING PEOPLE,MEDIUM OFFICE_BLDG_OCC,THERMAL ZONE 20,33.43,1.8,1.8,5.382E-002,18.581,0.300,0.700,AutoCalculate,MEDIUM OFFICE_ACTIVITY,No,3.8200E-008
 People Internal Gains, THERMAL ZONE 21 ASHRAE_90.1-2004 CLIMATEZONE 1-8 MEDIUMOFFICE WHOLEBUILDING PEOPLE,MEDIUM OFFICE_BLDG_OCC,THERMAL ZONE 21,33.43,1.8,1.8,5.382E-002,18.581,0.300,0.700,AutoCalculate,MEDIUM OFFICE_ACTIVITY,No,3.8200E-008
 People Internal Gains, THERMAL ZONE 22 ASHRAE_90.1-2004 CLIMATEZONE 1-8 MEDIUMOFFICE WHOLEBUILDING PEOPLE,MEDIUM OFFICE_BLDG_OCC,THERMAL ZONE 22,66.29,3.6,3.6,5.382E-002,18.581,0.300,0.700,AutoCalculate,MEDIUM OFFICE_ACTIVITY,No,3.8200E-008
 People Internal Gains, THERMAL ZONE 23 ASHRAE_90.1-2004 CLIMATEZONE 1-8 MEDIUMOFFICE WHOLEBUILDING PEOPLE,MEDIUM OFFICE_BLDG_OCC,THERMAL ZONE 23,33.43,1.8,1.8,5.382E-002,18.581,0.300,0.700,AutoCalculate,MEDIUM OFFICE_ACTIVITY,No,3.8200E-008
 People Internal Gains, THERMAL ZONE 24 ASHRAE_90.1-2004 CLIMATEZONE 1-8 MEDIUMOFFICE WHOLEBUILDING PEOPLE,MEDIUM OFFICE_BLDG_OCC,THERMAL ZONE 24,33.43,1.8,1.8,5.382E-002,18.581,0.300,0.700,AutoCalculate,MEDIUM OFFICE_ACTIVITY,No,3.8200E-008
 People Internal Gains, THERMAL ZONE 25 ASHRAE_90.1-2004 CLIMATEZONE 1-8 MEDIUMOFFICE WHOLEBUILDING PEOPLE,MEDIUM OFFICE_BLDG_OCC,THERMAL ZONE 25,33.43,1.8,1.8,5.382E-002,18.581,0.300,0.700,AutoCalculate,MEDIUM OFFICE_ACTIVITY,No,3.8200E-008
 People Internal Gains, THERMAL ZONE 3 ASHRAE_90.1-2004 CLIMATEZONE 1-8 MEDIUMOFFICE WHOLEBUILDING PEOPLE,MEDIUM OFFICE_BLDG_OCC,THERMAL ZONE 3,33.43,1.8,1.8,5.382E-002,18.581,0.300,0.700,AutoCalculate,MEDIUM OFFICE_ACTIVITY,No,3.8200E-008
 People Internal Gains, THERMAL ZONE 4 ASHRAE_90.1-2004 CLIMATEZONE 1-8 MEDIUMOFFICE WHOLEBUILDING PEOPLE,MEDIUM OFFICE_BLDG_OCC,THERMAL ZONE 4,33.43,1.8,1.8,5.382E-002,18.581,0.300,0.700,AutoCalculate,MEDIUM OFFICE_ACTIVITY,No,3.8200E-008
 People Internal Gains, THERMAL ZONE 5 ASHRAE_90.1-2004 CLIMATEZONE 1-8 MEDIUMOFFICE WHOLEBUILDING PEOPLE,MEDIUM OFFICE_BLDG_OCC,THERMAL ZONE 5,33.43,1.8,1.8,5.382E-002,18.581,0.300,0.700,AutoCalculate,MEDIUM OFFICE_ACTIVITY,No,3.8200E-008
 People Internal Gains, THERMAL ZONE 6 ASHRAE_90.1-2004 CLIMATEZONE 1-8 MEDIUMOFFICE WHOLEBUILDING PEOPLE,MEDIUM OFFICE_BLDG_OCC,THERMAL ZONE 6,33.43,1.8,1.8,5.382E-002,18.581,0.300,0.700,AutoCalculate,MEDIUM OFFICE_ACTIVITY,No,3.8200E-008
 People Internal Gains, THERMAL ZONE 7 ASHRAE_90.1-2004 CLIMATEZONE 1-8 MEDIUMOFFICE WHOLEBUILDING PEOPLE,MEDIUM OFFICE_BLDG_OCC,THERMAL ZONE 7,33.43,1.8,1.8,5.382E-002,18.581,0.300,0.700,AutoCalculate,MEDIUM OFFICE_ACTIVITY,No,3.8200E-008
 People Internal Gains, THERMAL ZONE 8 ASHRAE_90.1-2004 CLIMATEZONE 1-8 MEDIUMOFFICE WHOLEBUILDING PEOPLE,MEDIUM OFFICE_BLDG_OCC,THERMAL ZONE 8,33.43,1.8,1.8,5.382E-002,18.581,0.300,0.700,AutoCalculate,MEDIUM OFFICE_ACTIVITY,No,3.8200E-008
 People Internal Gains, THERMAL ZONE 9 ASHRAE_90.1-2004 CLIMATEZONE 1-8 MEDIUMOFFICE WHOLEBUILDING PEOPLE,MEDIUM OFFICE_BLDG_OCC,THERMAL ZONE 9,33.43,1.8,1.8,5.382E-002,18.581,0.300,0.700,AutoCalculate,MEDIUM OFFICE_ACTIVITY,No,3.8200E-008
! <Lights Internal Gains - Nominal>,Name,Schedule Name,Zone Name,Zone Floor Area {m2},# Zone Occupants,Lighting Level {W},Lights/Floor Area {W/m2},Lights per person {W/person},Fraction Return Air,Fraction Radiant,Fraction Short Wave,Fraction Convected,Fraction Replaceable,EndUse Category
 Lights Internal Gains, THERMAL ZONE 1 ASHRAE_90.1-2004 CLIMATEZONE 1-8 MEDIUMOFFICE WHOLEBUILDING LIGHTS,MEDIUM OFFICE_BLDG_LIGHT,THERMAL ZONE 1,66.29,3.6,713.587,10.764,200.000,0.000,0.000,0.000,1.000,1.000,General
 Lights Internal Gains, THERMAL ZONE 10 ASHRAE_90.1-2004 CLIMATEZONE 1-8 MEDIUMOFFICE WHOLEBUILDING LIGHTS,MEDIUM OFFICE_BLDG_LIGHT,THERMAL ZONE 10,33.43,1.8,359.799,10.764,200.000,0.000,0.000,0.000,1.000,1.000,General
 Lights Internal Gains, THERMAL ZONE 11 ASHRAE_90.1-2004 CLIMATEZONE 1-8 MEDIUMOFFICE WHOLEBUILDING LIGHTS,MEDIUM OFFICE_BLDG_LIGHT,THERMAL ZONE 11,66.29,3.6,713.587,10.764,200.000,0.000,0.000,0.000,1.000,1.000,General
 Lights Internal Gains, THERMAL ZONE 12 ASHRAE_90.1-2004 CLIMATEZONE 1-8 MEDIUMOFFICE WHOLEBUILDING LIGHTS,MEDIUM OFFICE_BLDG_LIGHT,THERMAL ZONE 12,33.43,1.8,359.799,10.764,200.000,0.000,0.000,0.000,1.000,1.000,General
 Lights Internal Gains, THERMAL ZONE 13 ASHRAE_90.1-2004 CLIMATEZONE 1-8 MEDIUMOFFICE WHOLEBUILDING LIGHTS,MEDIUM OFFICE_BLDG_LIGHT,THERMAL ZONE 13,33.43,1.8,359.799,10.764,200.000,0.000,0.000,0.000,1.000,1.000,General
 Lights Internal Gains, THERMAL ZONE 14 ASHRAE_90.1-2004 CLIMATEZONE 1-8 MEDIUMOFFICE WHOLEBUILDING LIGHTS,MEDIUM OFFICE_BLDG_LIGHT,THERMAL ZONE 14,66.29,3.6,713.587,10.764,200.000,0.000,0.000,0.000,1.000,1.000,General
 Lights Internal Gains, THERMAL ZONE 15 ASHRAE_90.1-2004 CLIMATEZONE 1-8 MEDIUMOFFICE WHOLEBUILDING LIGHTS,MEDIUM OFFICE_BLDG_LIGHT,THERMAL ZONE 15,33.43,1.8,359.799,10.764,200.000,0.000,0.000,0.000,1.000,1.000,General
 Lights Internal Gains, THERMAL ZONE 16 ASHRAE_90.1-2004 CLIMATEZONE 1-8 MEDIUMOFFICE WHOLEBUILDING LIGHTS,MEDIUM OFFICE_BLDG_LIGHT,THERMAL ZONE 16,66.29,3.6,713.587,10.764,200.000,0.000,0.000,0.000,1.000,1.000,General
 Lights Internal Gains, THERMAL ZONE 17 ASHRAE_90.1-2004 CLIMATEZONE 1-8 MEDIUMOFFICE WHOLEBUILDING LIGHTS,MEDIUM OFFICE_BLDG_LIGHT,THERMAL ZONE 17,33.43,1.8,359.799,10.764,200.000,0.000,0.000,0.000,1.000,1.000,General
 Lights Internal Gains, THERMAL ZONE 18 ASHRAE_90.1-2004 CLIMATEZONE 1-8 MEDIUMOFFICE WHOLEBUILDING LIGHTS,MEDIUM OFFICE_BLDG_LIGHT,THERMAL ZONE 18,33.43,1.8,359.799,10.764,200.000,0.000,0.000,0.000,1.000,1.000,General
 Lights Internal Gains, THERMAL ZONE 19 ASHRAE_90.1-2004 CLIMATEZONE 1-8 MEDIUMOFFICE WHOLEBUILDING LIGHTS,MEDIUM OFFICE_BLDG_LIGHT,THERMAL ZONE 19,33.43,1.8,359.799,10.764,200.000,0.000,0.000,0.000,1.000,1.000,General
 Lights Internal Gains, THERMAL ZONE 2 ASHRAE_90.1-2004 CLIMATEZONE 1-8 MEDIUMOFFICE WHOLEBUILDING LIGHTS,MEDIUM OFFICE_BLDG_LIGHT,THERMAL ZONE 2,33.43,1.8,359.799,10.764,200.000,0.000,0.000,0.000,1.000,1.000,General
 Lights Internal Gains, THERMAL ZONE 20 ASHRAE_90.1-2004 CLIMATEZONE 1-8 MEDIUMOFFICE WHOLEBUILDING LIGHTS,MEDIUM OFFICE_BLDG_LIGHT,THERMAL ZONE 20,33.43,1.8,359.799,10.764,200.000,0.000,0.000,0.000,1.000,1.000,General
 Lights Internal Gains, THERMAL ZONE 21 ASHRAE_90.1-2004 CLIMATEZONE 1-8 MEDIUMOFFICE WHOLEBUILDING LIGHTS,MEDIUM OFFICE_BLDG_LIGHT,THERMAL ZONE 21,33.43,1.8,359.799,10.764,200.000,0.000,0.000,0.000,1.000,1.000,General
 Lights Internal Gains, THERMAL ZONE 22 ASHRAE_90.1-2004 CLIMATEZONE 1-8 MEDIUMOFFICE WHOLEBUILDING LIGHTS,MEDIUM OFFICE_BLDG_LIGHT,THERMAL ZONE 22,66.29,3.6,713.587,10.764,200.000,0.000,0.000,0.000,1.000,1.000,General
 Lights Internal Gains, THERMAL ZONE 23 ASHRAE_90.1-2004 CLIMATEZONE 1-8 MEDIUMOFFICE WHOLEBUILDING LIGHTS,MEDIUM OFFICE_BLDG_LIGHT,THERMAL ZONE 23,33.43,1.8,359.799,10.764,200.000,0.000,0.000,0.000,1.000,1.000,General
 Lights Internal Gains, THERMAL ZONE 24 ASHRAE_90.1-2004 CLIMATEZONE 1-8 MEDIUMOFFICE WHOLEBUILDING LIGHTS,MEDIUM OFFICE_BLDG_LIGHT,THERMAL ZONE 24,33.43,1.8,359.799,10.764,200.000,0.000,0.000,0.000,1.000,1.000,General
 Lights Internal Gains, THERMAL ZONE 25 ASHRAE_90.1-2004 CLIMATEZONE 1-8 MEDIUMOFFICE WHOLEBUILDING LIGHTS,MEDIUM OFFICE_BLDG_LIGHT,THERMAL ZONE 25,33.43,1.8,359.799,10.764,200.000,0.000,0.000,0.000,1.000,1.000,General
 Lights Internal Gains, THERMAL ZONE 3 ASHRAE_90.1-2004 CLIMATEZONE 1-8 MEDIUMOFFICE WHOLEBUILDING LIGHTS,MEDIUM OFFICE_BLDG_LIGHT,THERMAL ZONE 3,33.43,1.8,359.799,10.764,200.000,0.000,0.000,0.000,1.000,1.000,General
 Lights Internal Gains, THERMAL ZONE 4 ASHRAE_90.1-2004 CLIMATEZONE 1-8 MEDIUMOFFICE WHOLEBUILDING LIGHTS,MEDIUM OFFICE_BLDG_LIGHT,THERMAL ZONE 4,33.43,1.8,359.799,10.764,200.000,0.000,0.000,0.000,1.000,1.000,General
 Lights Internal Gains, THERMAL ZONE 5 ASHRAE_90.1-2004 CLIMATEZONE 1-8 MEDIUMOFFICE WHOLEBUILDING LIGHTS,MEDIUM OFFICE_BLDG_LIGHT,THERMAL ZONE 5,33.43,1.8,359.799,10.764,200.000,0.000,0.000,0.000,1.000,1.000,General
 Lights Internal Gains, THERMAL ZONE 6 ASHRAE_90.1-2004 CLIMATEZONE 1-8 MEDIUMOFFICE WHOLEBUILDING LIGHTS,MEDIUM OFFICE_BLDG_LIGHT,THERMAL ZONE 6,33.43,1.8,359.799,10.764,200.000,0.000,0.000,0.000,1.000,1.000,General
 Lights Internal Gains, THERMAL ZONE 7 ASHRAE_90.1-2004 CLIMATEZONE 1-8 MEDIUMOFFICE WHOLEBUILDING LIGHTS,MEDIUM OFFICE_BLDG_LIGHT,THERMAL ZONE 7,33.43,1.8,359.799,10.764,200.000,0.000,0.000,0.000,1.000,1.000,General
 Lights Internal Gains, THERMAL ZONE 8 ASHRAE_90.1-2004 CLIMATEZONE 1-8 MEDIUMOFFICE WHOLEBUILDING LIGHTS,MEDIUM OFFICE_BLDG_LIGHT,THERMAL ZONE 8,33.43,1.8,359.799,10.764,200.000,0.000,0.000,0.000,1.000,1.000,General
 Lights Internal Gains, THERMAL ZONE 9 ASHRAE_90.1-2004 CLIMATEZONE 1-8 MEDIUMOFFICE WHOLEBUILDING LIGHTS,MEDIUM OFFICE_BLDG_LIGHT,THERMAL ZONE 9,33.43,1.8,359.799,10.764,200.000,0.000,0.000,0.000,1.000,1.000,General
! <ElectricEquipment Internal Gains - Nominal>,Name,Schedule Name,Zone Name,Zone Floor Area {m2},# Zone Occupants,Equipment Level {W},Equipment/Floor Area {W/m2},Equipment per person {W/person},Fraction Latent,Fraction Radiant,Fraction Lost,Fraction Convected,EndUse SubCategory
 ElectricEquipment Internal Gains, THERMAL ZONE 1 ASHRAE_90.1-2004 CLIMATEZONE 1-8 MEDIUMOFFICE WHOLEBUILDING ELECTRIC EQUIPMENT,MEDIUM OFFICE_BLDG_EQUIP,THERMAL ZONE 1,66.29,3.6,713.587,10.764,200.000,0.000,0.000,0.000,1.000,General
 ElectricEquipment Internal Gains, THERMAL ZONE 10 ASHRAE_90.1-2004 CLIMATEZONE 1-8 MEDIUMOFFICE WHOLEBUILDING ELECTRIC EQUIPMENT,MEDIUM OFFICE_BLDG_EQUIP,THERMAL ZONE 10,33.43,1.8,359.799,10.764,200.000,0.000,0.000,0.000,1.000,General
 ElectricEquipment Internal Gains, THERMAL ZONE 11 ASHRAE_90.1-2004 CLIMATEZONE 1-8 MEDIUMOFFICE WHOLEBUILDING ELECTRIC EQUIPMENT,MEDIUM OFFICE_BLDG_EQUIP,THERMAL ZONE 11,66.29,3.6,713.587,10.764,200.000,0.000,0.000,0.000,1.000,General
 ElectricEquipment Internal Gains, THERMAL ZONE 12 ASHRAE_90.1-2004 CLIMATEZONE 1-8 MEDIUMOFFICE WHOLEBUILDING ELECTRIC EQUIPMENT,MEDIUM OFFICE_BLDG_EQUIP,THERMAL ZONE 12,33.43,1.8,359.799,10.764,200.000,0.000,0.000,0.000,1.000,General
 ElectricEquipment Internal Gains, THERMAL ZONE 13 ASHRAE_90.1-2004 CLIMATEZONE 1-8 MEDIUMOFFICE WHOLEBUILDING ELECTRIC EQUIPMENT,MEDIUM OFFICE_BLDG_EQUIP,THERMAL ZONE 13,33.43,1.8,359.799,10.764,200.000,0.000,0.000,0.000,1.000,General
 ElectricEquipment Internal Gains, THERMAL ZONE 14 ASHRAE_90.1-2004 CLIMATEZONE 1-8 MEDIUMOFFICE WHOLEBUILDING ELECTRIC EQUIPMENT,MEDIUM OFFICE_BLDG_EQUIP,THERMAL ZONE 14,66.29,3.6,713.587,10.764,200.000,0.000,0.000,0.000,1.000,General
 ElectricEquipment Internal Gains, THERMAL ZONE 15 ASHRAE_90.1-2004 CLIMATEZONE 1-8 MEDIUMOFFICE WHOLEBUILDING ELECTRIC EQUIPMENT,MEDIUM OFFICE_BLDG_EQUIP,THERMAL ZONE 15,33.43,1.8,359.799,10.764,200.000,0.000,0.000,0.000,1.000,General
 ElectricEquipment Internal Gains, THERMAL ZONE 16 ASHRAE_90.1-2004 CLIMATEZONE 1-8 MEDIUMOFFICE WHOLEBUILDING ELECTRIC EQUIPMENT,MEDIUM OFFICE_BLDG_EQUIP,THERMAL ZONE 16,66.29,3.6,713.587,10.764,200.000,0.000,0.000,0.000,1.000,General
 ElectricEquipment Internal Gains, THERMAL ZONE 17 ASHRAE_90.1-2004 CLIMATEZONE 1-8 MEDIUMOFFICE WHOLEBUILDING ELECTRIC EQUIPMENT,MEDIUM OFFICE_BLDG_EQUIP,THERMAL ZONE 17,33.43,1.8,359.799,10.764,200.000,0.000,0.000,0.000,1.000,General
 ElectricEquipment Internal Gains, THERMAL ZONE 18 ASHRAE_90.1-2004 CLIMATEZONE 1-8 MEDIUMOFFICE WHOLEBUILDING ELECTRIC EQUIPMENT,MEDIUM OFFICE_BLDG_EQUIP,THERMAL ZONE 18,33.43,1.8,359.799,10.764,200.000,0.000,0.000,0.000,1.000,General
 ElectricEquipment Internal Gains, THERMAL ZONE 19 ASHRAE_90.1-2004 CLIMATEZONE 1-8 MEDIUMOFFICE WHOLEBUILDING ELECTRIC EQUIPMENT,MEDIUM OFFICE_BLDG_EQUIP,THERMAL ZONE 19,33.43,1.8,359.799,10.764,200.000,0.000,0.000,0.000,1.000,General
 ElectricEquipment Internal Gains, THERMAL ZONE 2 ASHRAE_90.1-2004 CLIMATEZONE 1-8 MEDIUMOFFICE WHOLEBUILDING ELECTRIC EQUIPMENT,MEDIUM OFFICE_BLDG_EQUIP,THERMAL ZONE 2,33.43,1.8,359.799,10.764,200.000,0.000,0.000,0.000,1.000,General
 ElectricEquipment Internal Gains, THERMAL ZONE 20 ASHRAE_90.1-2004 CLIMATEZONE 1-8 MEDIUMOFFICE WHOLEBUILDING ELECTRIC EQUIPMENT,MEDIUM OFFICE_BLDG_EQUIP,THERMAL ZONE 20,33.43,1.8,359.799,10.764,200.000,0.000,0.000,0.000,1.000,General
 ElectricEquipment Internal Gains, THERMAL ZONE 21 ASHRAE_90.1-2004 CLIMATEZONE 1-8 MEDIUMOFFICE WHOLEBUILDING ELECTRIC EQUIPMENT,MEDIUM OFFICE_BLDG_EQUIP,THERMAL ZONE 21,33.43,1.8,359.799,10.764,200.000,0.000,0.000,0.000,1.000,General
 ElectricEquipment Internal Gains, THERMAL ZONE 22 ASHRAE_90.1-2004 CLIMATEZONE 1-8 MEDIUMOFFICE WHOLEBUILDING ELECTRIC EQUIPMENT,MEDIUM OFFICE_BLDG_EQUIP,THERMAL ZONE 22,66.29,3.6,713.587,10.764,200.000,0.000,0.000,0.000,1.000,General
 ElectricEquipment Internal Gains, THERMAL ZONE 23 ASHRAE_90.1-2004 CLIMATEZONE 1-8 MEDIUMOFFICE WHOLEBUILDING ELECTRIC EQUIPMENT,MEDIUM OFFICE_BLDG_EQUIP,THERMAL ZONE 23,33.43,1.8,359.799,10.764,200.000,0.000,0.000,0.000,1.000,General
 ElectricEquipment Internal Gains, THERMAL ZONE 24 ASHRAE_90.1-2004 CLIMATEZONE 1-8 MEDIUMOFFICE WHOLEBUILDING ELECTRIC EQUIPMENT,MEDIUM OFFICE_BLDG_EQUIP,THERMAL ZONE 24,33.43,1.8,359.799,10.764,200.000,0.000,0.000,0.000,1.000,General
 ElectricEquipment Internal Gains, THERMAL ZONE 25 ASHRAE_90.1-2004 CLIMATEZONE 1-8 MEDIUMOFFICE WHOLEBUILDING ELECTRIC EQUIPMENT,MEDIUM OFFICE_BLDG_EQUIP,THERMAL ZONE 25,33.43,1.8,359.799,10.764,200.000,0.000,0.000,0.000,1.000,General
 ElectricEquipment Internal Gains, THERMAL ZONE 3 ASHRAE_90.1-2004 CLIMATEZONE 1-8 MEDIUMOFFICE WHOLEBUILDING ELECTRIC EQUIPMENT,MEDIUM OFFICE_BLDG_EQUIP,THERMAL ZONE 3,33.43,1.8,359.799,10.764,200.000,0.000,0.000,0.000,1.000,General
 ElectricEquipment Internal Gains, THERMAL ZONE 4 ASHRAE_90.1-2004 CLIMATEZONE 1-8 MEDIUMOFFICE WHOLEBUILDING ELECTRIC EQUIPMENT,MEDIUM OFFICE_BLDG_EQUIP,THERMAL ZONE 4,33.43,1.8,359.799,10.764,200.000,0.000,0.000,0.000,1.000,General
 ElectricEquipment Internal Gains, THERMAL ZONE 5 ASHRAE_90.1-2004 CLIMATEZONE 1-8 MEDIUMOFFICE WHOLEBUILDING ELECTRIC EQUIPMENT,MEDIUM OFFICE_BLDG_EQUIP,THERMAL ZONE 5,33.43,1.8,359.799,10.764,200.000,0.000,0.000,0.000,1.000,General
 ElectricEquipment Internal Gains, THERMAL ZONE 6 ASHRAE_90.1-2004 CLIMATEZONE 1-8 MEDIUMOFFICE WHOLEBUILDING ELECTRIC EQUIPMENT,MEDIUM OFFICE_BLDG_EQUIP,THERMAL ZONE 6,33.43,1.8,359.799,10.764,200.000,0.000,0.000,0.000,1.000,General
 ElectricEquipment Internal Gains, THERMAL ZONE 7 ASHRAE_90.1-2004 CLIMATEZONE 1-8 MEDIUMOFFICE WHOLEBUILDING ELECTRIC EQUIPMENT,MEDIUM OFFICE_BLDG_EQUIP,THERMAL ZONE 7,33.43,1.8,359.799,10.764,200.000,0.000,0.000,0.000,1.000,General
 ElectricEquipment Internal Gains, THERMAL ZONE 8 ASHRAE_90.1-2004 CLIMATEZONE 1-8 MEDIUMOFFICE WHOLEBUILDING ELECTRIC EQUIPMENT,MEDIUM OFFICE_BLDG_EQUIP,THERMAL ZONE 8,33.43,1.8,359.799,10.764,200.000,0.000,0.000,0.000,1.000,General
 ElectricEquipment Internal Gains, THERMAL ZONE 9 ASHRAE_90.1-2004 CLIMATEZONE 1-8 MEDIUMOFFICE WHOLEBUILDING ELECTRIC EQUIPMENT,MEDIUM OFFICE_BLDG_EQUIP,THERMAL ZONE 9,33.43,1.8,359.799,10.764,200.000,0.000,0.000,0.000,1.000,General
! <Shadowing/Sun Position Calculations> [Annual Simulations], Value {days}, Allowable Number Figures in Shadow Overlap {}, Polygon Clipping Algorithm, Sky Diffuse Modeling Algorithm
Shadowing/Sun Position Calculations,20,15000,SutherlandHodgman,SimpleSkyDiffuseModeling
! <Infiltration Airflow Stats - Nominal>,Name,Schedule Name,Zone Name, Zone Floor Area {m2}, # Zone Occupants,Design Volume Flow Rate {m3/s},Volume Flow Rate/Floor Area {m3/s/m2},Volume Flow Rate/Exterior Surface Area {m3/s/m2},ACH - Air Changes per Hour,Equation A - Constant Term Coefficient {},Equation B - Temperature Term Coefficient {1/C},Equation C - Velocity Term Coefficient {s/m}, Equation D - Velocity Squared Term Coefficient {s2/m2}
 ZoneInfiltration Airflow Stats, THERMAL ZONE 1 ASHRAE_90.1-2004 CLIMATEZONE 1-8 MEDIUMOFFICE WHOLEBUILDING INFILTRATION,MEDIUM OFFICE_INFIL_QUARTER_ON,THERMAL ZONE 1,66.29,3.6,0.000,0.000,N/A,0.000,1.000,0.000,0.000,0.000
 ZoneInfiltration Airflow Stats, THERMAL ZONE 10 ASHRAE_90.1-2004 CLIMATEZONE 1-8 MEDIUMOFFICE WHOLEBUILDING INFILTRATION,MEDIUM OFFICE_INFIL_QUARTER_ON,THERMAL ZONE 10,33.43,1.8,2.720E-002,8.138E-004,3.023E-004,0.732,1.000,0.000,0.000,0.000
 ZoneInfiltration Airflow Stats, THERMAL ZONE 11 ASHRAE_90.1-2004 CLIMATEZONE 1-8 MEDIUMOFFICE WHOLEBUILDING INFILTRATION,MEDIUM OFFICE_INFIL_QUARTER_ON,THERMAL ZONE 11,66.29,3.6,0.000,0.000,N/A,0.000,1.000,0.000,0.000,0.000
 ZoneInfiltration Airflow Stats, THERMAL ZONE 12 ASHRAE_90.1-2004 CLIMATEZONE 1-8 MEDIUMOFFICE WHOLEBUILDING INFILTRATION,MEDIUM OFFICE_INFIL_QUARTER_ON,THERMAL ZONE 12,33.43,1.8,1.710E-002,5.115E-004,3.023E-004,0.460,1.000,0.000,0.000,0.000
 ZoneInfiltration Airflow Stats, THERMAL ZONE 13 ASHRAE_90.1-2004 CLIMATEZONE 1-8 MEDIUMOFFICE WHOLEBUILDING INFILTRATION,MEDIUM OFFICE_INFIL_QUARTER_ON,THERMAL ZONE 13,33.43,1.8,1.710E-002,5.115E-004,3.023E-004,0.460,1.000,0.000,0.000,0.000
 ZoneInfiltration Airflow Stats, THERMAL ZONE 14 ASHRAE_90.1-2004 CLIMATEZONE 1-8 MEDIUMOFFICE WHOLEBUILDING INFILTRATION,MEDIUM OFFICE_INFIL_QUARTER_ON,THERMAL ZONE 14,66.29,3.6,2.004E-002,3.023E-004,3.023E-004,0.272,1.000,0.000,0.000,0.000
 ZoneInfiltration Airflow Stats, THERMAL ZONE 15 ASHRAE_90.1-2004 CLIMATEZONE 1-8 MEDIUMOFFICE WHOLEBUILDING INFILTRATION,MEDIUM OFFICE_INFIL_QUARTER_ON,THERMAL ZONE 15,33.43,1.8,1.710E-002,5.115E-004,3.023E-004,0.460,1.000,0.000,0.000,0.000
 ZoneInfiltration Airflow Stats, THERMAL ZONE 16 ASHRAE_90.1-2004 CLIMATEZONE 1-8 MEDIUMOFFICE WHOLEBUILDING INFILTRATION,MEDIUM OFFICE_INFIL_QUARTER_ON,THERMAL ZONE 16,66.29,3.6,0.000,0.000,N/A,0.000,1.000,0.000,0.000,0.000
 ZoneInfiltration Airflow Stats, THERMAL ZONE 17 ASHRAE_90.1-2004 CLIMATEZONE 1-8 MEDIUMOFFICE WHOLEBUILDING INFILTRATION,MEDIUM OFFICE_INFIL_QUARTER_ON,THERMAL ZONE 17,33.43,1.8,1.710E-002,5.115E-004,3.023E-004,0.460,1.000,0.000,0.000,0.000
 ZoneInfiltration Airflow Stats, THERMAL ZONE 18 ASHRAE_90.1-2004 CLIMATEZONE 1-8 MEDIUMOFFICE WHOLEBUILDING INFILTRATION,MEDIUM OFFICE_INFIL_QUARTER_ON,THERMAL ZONE 18,33.43,1.8,1.710E-002,5.115E-004,3.023E-004,0.460,1.000,0.000,0.000,0.000
 ZoneInfiltration Airflow Stats, THERMAL ZONE 19 ASHRAE_90.1-2004 CLIMATEZONE 1-8 MEDIUMOFFICE WHOLEBUILDING INFILTRATION,MEDIUM OFFICE_INFIL_QUARTER_ON,THERMAL ZONE 19,33.43,1.8,1.710E-002,5.115E-004,3.023E-004,0.460,1.000,0.000,0.000,0.000
 ZoneInfiltration Airflow Stats, THERMAL ZONE 2 ASHRAE_90.1-2004 CLIMATEZONE 1-8 MEDIUMOFFICE WHOLEBUILDING INFILTRATION,MEDIUM OFFICE_INFIL_QUARTER_ON,THERMAL ZONE 2,33.43,1.8,1.710E-002,5.115E-004,3.023E-004,0.460,1.000,0.000,0.000,0.000
 ZoneInfiltration Airflow Stats, THERMAL ZONE 20 ASHRAE_90.1-2004 CLIMATEZONE 1-8 MEDIUMOFFICE WHOLEBUILDING INFILTRATION,MEDIUM OFFICE_INFIL_QUARTER_ON,THERMAL ZONE 20,33.43,1.8,1.710E-002,5.115E-004,3.023E-004,0.460,1.000,0.000,0.000,0.000
 ZoneInfiltration Airflow Stats, THERMAL ZONE 21 ASHRAE_90.1-2004 CLIMATEZONE 1-8 MEDIUMOFFICE WHOLEBUILDING INFILTRATION,MEDIUM OFFICE_INFIL_QUARTER_ON,THERMAL ZONE 21,33.43,1.8,1.710E-002,5.115E-004,3.023E-004,0.460,1.000,0.000,0.000,0.000
 ZoneInfiltration Airflow Stats, THERMAL ZONE 22 ASHRAE_90.1-2004 CLIMATEZONE 1-8 MEDIUMOFFICE WHOLEBUILDING INFILTRATION,MEDIUM OFFICE_INFIL_QUARTER_ON,THERMAL ZONE 22,66.29,3.6,0.000,0.000,N/A,0.000,1.000,0.000,0.000,0.000
 ZoneInfiltration Airflow Stats, THERMAL ZONE 23 ASHRAE_90.1-2004 CLIMATEZONE 1-8 MEDIUMOFFICE WHOLEBUILDING INFILTRATION,MEDIUM OFFICE_INFIL_QUARTER_ON,THERMAL ZONE 23,33.43,1.8,1.710E-002,5.115E-004,3.023E-004,0.460,1.000,0.000,0.000,0.000
 ZoneInfiltration Airflow Stats, THERMAL ZONE 24 ASHRAE_90.1-2004 CLIMATEZONE 1-8 MEDIUMOFFICE WHOLEBUILDING INFILTRATION,MEDIUM OFFICE_INFIL_QUARTER_ON,THERMAL ZONE 24,33.43,1.8,1.710E-002,5.115E-004,3.023E-004,0.460,1.000,0.000,0.000,0.000
 ZoneInfiltration Airflow Stats, THERMAL ZONE 25 ASHRAE_90.1-2004 CLIMATEZONE 1-8 MEDIUMOFFICE WHOLEBUILDING INFILTRATION,MEDIUM OFFICE_INFIL_QUARTER_ON,THERMAL ZONE 25,33.43,1.8,1.710E-002,5.115E-004,3.023E-004,0.460,1.000,0.000,0.000,0.000
 ZoneInfiltration Airflow Stats, THERMAL ZONE 3 ASHRAE_90.1-2004 CLIMATEZONE 1-8 MEDIUMOFFICE WHOLEBUILDING INFILTRATION,MEDIUM OFFICE_INFIL_QUARTER_ON,THERMAL ZONE 3,33.43,1.8,1.710E-002,5.115E-004,3.023E-004,0.460,1.000,0.000,0.000,0.000
 ZoneInfiltration Airflow Stats, THERMAL ZONE 4 ASHRAE_90.1-2004 CLIMATEZONE 1-8 MEDIUMOFFICE WHOLEBUILDING INFILTRATION,MEDIUM OFFICE_INFIL_QUARTER_ON,THERMAL ZONE 4,33.43,1.8,1.710E-002,5.115E-004,3.023E-004,0.460,1.000,0.000,0.000,0.000
 ZoneInfiltration Airflow Stats, THERMAL ZONE 5 ASHRAE_90.1-2004 CLIMATEZONE 1-8 MEDIUMOFFICE WHOLEBUILDING INFILTRATION,MEDIUM OFFICE_INFIL_QUARTER_ON,THERMAL ZONE 5,33.43,1.8,1.710E-002,5.115E-004,3.023E-004,0.460,1.000,0.000,0.000,0.000
 ZoneInfiltration Airflow Stats, THERMAL ZONE 6 ASHRAE_90.1-2004 CLIMATEZONE 1-8 MEDIUMOFFICE WHOLEBUILDING INFILTRATION,MEDIUM OFFICE_INFIL_QUARTER_ON,THERMAL ZONE 6,33.43,1.8,1.710E-002,5.115E-004,3.023E-004,0.460,1.000,0.000,0.000,0.000
 ZoneInfiltration Airflow Stats, THERMAL ZONE 7 ASHRAE_90.1-2004 CLIMATEZONE 1-8 MEDIUMOFFICE WHOLEBUILDING INFILTRATION,MEDIUM OFFICE_INFIL_QUARTER_ON,THERMAL ZONE 7,33.43,1.8,2.720E-002,8.138E-004,3.023E-004,0.732,1.000,0.000,0.000,0.000
 ZoneInfiltration Airflow Stats, THERMAL ZONE 8 ASHRAE_90.1-2004 CLIMATEZONE 1-8 MEDIUMOFFICE WHOLEBUILDING INFILTRATION,MEDIUM OFFICE_INFIL_QUARTER_ON,THERMAL ZONE 8,33.43,1.8,2.720E-002,8.138E-004,3.023E-004,0.732,1.000,0.000,0.000,0.000
 ZoneInfiltration Airflow Stats, THERMAL ZONE 9 ASHRAE_90.1-2004 CLIMATEZONE 1-8 MEDIUMOFFICE WHOLEBUILDING INFILTRATION,MEDIUM OFFICE_INFIL_QUARTER_ON,THERMAL ZONE 9,33.43,1.8,2.720E-002,8.138E-004,3.023E-004,0.732,1.000,0.000,0.000,0.000
! <AirFlow Model>, Simple
 AirFlow Model, Simple
! <RoomAir Model>, Zone Name, Mixing/Mundt/UCSDDV/UCSDCV/UCSDUFI/UCSDUFE/User Defined
RoomAir Model,THERMAL ZONE 14,Mixing/Well-Stirred
RoomAir Model,THERMAL ZONE 15,Mixing/Well-Stirred
RoomAir Model,THERMAL ZONE 9,Mixing/Well-Stirred
RoomAir Model,THERMAL ZONE 1,Mixing/Well-Stirred
RoomAir Model,THERMAL ZONE 18,Mixing/Well-Stirred
RoomAir Model,THERMAL ZONE 17,Mixing/Well-Stirred
RoomAir Model,THERMAL ZONE 24,Mixing/Well-Stirred
RoomAir Model,THERMAL ZONE 8,Mixing/Well-Stirred
RoomAir Model,THERMAL ZONE 25,Mixing/Well-Stirred
RoomAir Model,THERMAL ZONE 3,Mixing/Well-Stirred
RoomAir Model,THERMAL ZONE 22,Mixing/Well-Stirred
RoomAir Model,THERMAL ZONE 12,Mixing/Well-Stirred
RoomAir Model,THERMAL ZONE 11,Mixing/Well-Stirred
RoomAir Model,THERMAL ZONE 16,Mixing/Well-Stirred
RoomAir Model,THERMAL ZONE 5,Mixing/Well-Stirred
RoomAir Model,THERMAL ZONE 20,Mixing/Well-Stirred
RoomAir Model,THERMAL ZONE 21,Mixing/Well-Stirred
RoomAir Model,THERMAL ZONE 19,Mixing/Well-Stirred
RoomAir Model,THERMAL ZONE 23,Mixing/Well-Stirred
RoomAir Model,THERMAL ZONE 13,Mixing/Well-Stirred
RoomAir Model,THERMAL ZONE 10,Mixing/Well-Stirred
RoomAir Model,THERMAL ZONE 2,Mixing/Well-Stirred
RoomAir Model,THERMAL ZONE 6,Mixing/Well-Stirred
RoomAir Model,THERMAL ZONE 7,Mixing/Well-Stirred
RoomAir Model,THERMAL ZONE 4,Mixing/Well-Stirred
! <AirflowNetwork Model:Control>, No Multizone or Distribution/Multizone with Distribution/Multizone without Distribution/Multizone with Distribution only during Fan Operation
AirflowNetwork Model:Control,NoMultizoneOrDistribution
! <Zone Volume Capacitance Multiplier>, Sensible Heat Capacity Multiplier, Moisture Capacity Multiplier, Carbon Dioxide Capacity Multiplier, Generic Contaminant Capacity Multiplier
Zone Volume Capacitance Multiplier,   1.000 ,   1.000,   1.000,   1.000
! <Load Timesteps in Zone Design Calculation Averaging Window>, Value
 Load Timesteps in Zone Design Calculation Averaging Window,    4
! <Heating Sizing Factor Information>, Sizing Factor ID, Value
 Heating Sizing Factor Information, Global,   1.2500    
 Heating Sizing Factor Information, Zone THERMAL ZONE 14,   1.2500    
 Heating Sizing Factor Information, Zone THERMAL ZONE 15,   1.2500    
 Heating Sizing Factor Information, Zone THERMAL ZONE 9,   1.2500    
 Heating Sizing Factor Information, Zone THERMAL ZONE 1,   1.2500    
 Heating Sizing Factor Information, Zone THERMAL ZONE 18,   1.2500    
 Heating Sizing Factor Information, Zone THERMAL ZONE 17,   1.2500    
 Heating Sizing Factor Information, Zone THERMAL ZONE 24,   1.2500    
 Heating Sizing Factor Information, Zone THERMAL ZONE 8,   1.2500    
 Heating Sizing Factor Information, Zone THERMAL ZONE 25,   1.2500    
 Heating Sizing Factor Information, Zone THERMAL ZONE 3,   1.2500    
 Heating Sizing Factor Information, Zone THERMAL ZONE 22,   1.2500    
 Heating Sizing Factor Information, Zone THERMAL ZONE 12,   1.2500    
 Heating Sizing Factor Information, Zone THERMAL ZONE 11,   1.2500    
 Heating Sizing Factor Information, Zone THERMAL ZONE 16,   1.2500    
 Heating Sizing Factor Information, Zone THERMAL ZONE 5,   1.2500    
 Heating Sizing Factor Information, Zone THERMAL ZONE 20,   1.2500    
 Heating Sizing Factor Information, Zone THERMAL ZONE 21,   1.2500    
 Heating Sizing Factor Information, Zone THERMAL ZONE 19,   1.2500    
 Heating Sizing Factor Information, Zone THERMAL ZONE 23,   1.2500    
 Heating Sizing Factor Information, Zone THERMAL ZONE 13,   1.2500    
 Heating Sizing Factor Information, Zone THERMAL ZONE 10,   1.2500    
 Heating Sizing Factor Information, Zone THERMAL ZONE 2,   1.2500    
 Heating Sizing Factor Information, Zone THERMAL ZONE 6,   1.2500    
 Heating Sizing Factor Information, Zone THERMAL ZONE 7,   1.2500    
 Heating Sizing Factor Information, Zone THERMAL ZONE 4,   1.2500    
! <Cooling Sizing Factor Information>, Sizing Factor ID, Value
 Cooling Sizing Factor Information, Global,   1.1500    
 Cooling Sizing Factor Information, Zone THERMAL ZONE 14,   1.1500    
 Cooling Sizing Factor Information, Zone THERMAL ZONE 15,   1.1500    
 Cooling Sizing Factor Information, Zone THERMAL ZONE 9,   1.1500    
 Cooling Sizing Factor Information, Zone THERMAL ZONE 1,   1.1500    
 Cooling Sizing Factor Information, Zone THERMAL ZONE 18,   1.1500    
 Cooling Sizing Factor Information, Zone THERMAL ZONE 17,   1.1500    
 Cooling Sizing Factor Information, Zone THERMAL ZONE 24,   1.1500    
 Cooling Sizing Factor Information, Zone THERMAL ZONE 8,   1.1500    
 Cooling Sizing Factor Information, Zone THERMAL ZONE 25,   1.1500    
 Cooling Sizing Factor Information, Zone THERMAL ZONE 3,   1.1500    
 Cooling Sizing Factor Information, Zone THERMAL ZONE 22,   1.1500    
 Cooling Sizing Factor Information, Zone THERMAL ZONE 12,   1.1500    
 Cooling Sizing Factor Information, Zone THERMAL ZONE 11,   1.1500    
 Cooling Sizing Factor Information, Zone THERMAL ZONE 16,   1.1500    
 Cooling Sizing Factor Information, Zone THERMAL ZONE 5,   1.1500    
 Cooling Sizing Factor Information, Zone THERMAL ZONE 20,   1.1500    
 Cooling Sizing Factor Information, Zone THERMAL ZONE 21,   1.1500    
 Cooling Sizing Factor Information, Zone THERMAL ZONE 19,   1.1500    
 Cooling Sizing Factor Information, Zone THERMAL ZONE 23,   1.1500    
 Cooling Sizing Factor Information, Zone THERMAL ZONE 13,   1.1500    
 Cooling Sizing Factor Information, Zone THERMAL ZONE 10,   1.1500    
 Cooling Sizing Factor Information, Zone THERMAL ZONE 2,   1.1500    
 Cooling Sizing Factor Information, Zone THERMAL ZONE 6,   1.1500    
 Cooling Sizing Factor Information, Zone THERMAL ZONE 7,   1.1500    
 Cooling Sizing Factor Information, Zone THERMAL ZONE 4,   1.1500    
! <Zone Sizing Information>, Zone Name, Load Type, Calc Des Load {W}, User Des Load {W}, Calc Des Air Flow Rate {m3/s}, User Des Air Flow Rate {m3/s}, Design Day Name, Date/Time of Peak, Temperature at Peak {C}, Humidity Ratio at Peak {kgWater/kgDryAir}, Floor Area {m2}, # Occupants, Calc Outdoor Air Flow Rate {m3/s}
 Zone Sizing Information, THERMAL ZONE 14, Cooling, 1903.06875, 2188.52906, 0.11064, 0.12724, PHILADELPHIA INTERNATIONAL AP ANN CLG .4% CONDNS DB=>MWB, 7/21 18:45:00, 30.68650, 1.48422E-002, 66.29437, 3.56793, 3.36775E-002
 Zone Sizing Information, THERMAL ZONE 14, Heating, 1649.68391, 2062.10488, 8.39582E-002, 0.10495, PHILADELPHIA INTERNATIONAL AP ANN HTG 99.6% CONDNS DB, 1/21 06:00:00, -10.80000, 1.48961E-003, 66.29437, 3.56793, 3.36775E-002
 Zone Sizing Information, THERMAL ZONE 15, Cooling, 872.23342, 1003.06843, 5.07131E-002, 5.83201E-002, PHILADELPHIA INTERNATIONAL AP ANN CLG .4% CONDNS DB=>MWB, 7/21 14:30:00, 34.00000, 1.48422E-002, 33.42641, 1.79899, 1.69806E-002
 Zone Sizing Information, THERMAL ZONE 15, Heating, 1991.90637, 2489.88296, 0.10137, 0.12671, PHILADELPHIA INTERNATIONAL AP ANN HTG 99.6% CONDNS DB, 1/21 06:00:00, -10.80000, 1.48961E-003, 33.42641, 1.79899, 1.69806E-002
 Zone Sizing Information, THERMAL ZONE 9, Cooling, 1815.04540, 2087.30221, 0.10553, 0.12136, PHILADELPHIA INTERNATIONAL AP ANN CLG .4% CONDNS DB=>MWB, 7/21 17:30:00, 32.21400, 1.48422E-002, 33.42641, 1.79899, 1.69806E-002
 Zone Sizing Information, THERMAL ZONE 9, Heating, 2479.98330, 3099.97912, 0.12618, 0.15773, PHILADELPHIA INTERNATIONAL AP ANN HTG 99.6% CONDNS DB, 1/21 06:00:00, -10.80000, 1.48961E-003, 33.42641, 1.79899, 1.69806E-002
 Zone Sizing Information, THERMAL ZONE 1, Cooling, 1780.65082, 2047.74845, 0.10352, 0.11905, PHILADELPHIA INTERNATIONAL AP ANN CLG .4% CONDNS DB=>MWB, 7/21 18:15:00, 31.39150, 1.48422E-002, 66.29437, 3.56793, 3.36775E-002
 Zone Sizing Information, THERMAL ZONE 1, Heating, 291.46094, 364.32617, 1.48371E-002, 3.36775E-002, PHILADELPHIA INTERNATIONAL AP ANN HTG 99.6% CONDNS DB, 1/21 07:00:00, -10.80000, 1.48961E-003, 66.29437, 3.56793, 3.36775E-002
 Zone Sizing Information, THERMAL ZONE 18, Cooling, 912.23202, 1049.06682, 5.30391E-002, 6.09949E-002, PHILADELPHIA INTERNATIONAL AP ANN CLG .4% CONDNS DB=>MWB, 7/21 11:00:00, 31.83800, 1.48422E-002, 33.42641, 1.79899, 1.69806E-002
 Zone Sizing Information, THERMAL ZONE 18, Heating, 1991.90637, 2489.88296, 0.10137, 0.12671, PHILADELPHIA INTERNATIONAL AP ANN HTG 99.6% CONDNS DB, 1/21 06:00:00, -10.80000, 1.48961E-003, 33.42641, 1.79899, 1.69806E-002
 Zone Sizing Information, THERMAL ZONE 17, Cooling, 1129.08911, 1298.45248, 6.56446E-002, 7.54912E-002, PHILADELPHIA INTERNATIONAL AP ANN CLG .4% CONDNS DB=>MWB, 7/21 18:15:00, 31.39150, 1.48422E-002, 33.42641, 1.79899, 1.69806E-002
 Zone Sizing Information, THERMAL ZONE 17, Heating, 1768.56381, 2210.70476, 8.99996E-002, 0.11250, PHILADELPHIA INTERNATIONAL AP ANN HTG 99.6% CONDNS DB, 1/21 06:00:00, -10.80000, 1.48961E-003, 33.42641, 1.79899, 1.69806E-002
 Zone Sizing Information, THERMAL ZONE 24, Cooling, 1195.11379, 1374.38086, 6.94829E-002, 7.99053E-002, PHILADELPHIA INTERNATIONAL AP ANN CLG .4% CONDNS DB=>MWB, 7/21 18:15:00, 31.39150, 1.48422E-002, 33.42641, 1.79899, 1.69806E-002
 Zone Sizing Information, THERMAL ZONE 24, Heating, 1775.90598, 2219.88248, 9.03732E-002, 0.11297, PHILADELPHIA INTERNATIONAL AP ANN HTG 99.6% CONDNS DB, 1/21 06:00:00, -10.80000, 1.48961E-003, 33.42641, 1.79899, 1.69806E-002
 Zone Sizing Information, THERMAL ZONE 8, Cooling, 1256.37696, 1444.83350, 7.30477E-002, 8.40049E-002, PHILADELPHIA INTERNATIONAL AP ANN CLG .4% CONDNS DB=>MWB, 7/21 18:15:00, 31.39150, 1.48422E-002, 33.42641, 1.79899, 1.69806E-002
 Zone Sizing Information, THERMAL ZONE 8, Heating, 2479.98330, 3099.97912, 0.12618, 0.15773, PHILADELPHIA INTERNATIONAL AP ANN HTG 99.6% CONDNS DB, 1/21 06:00:00, -10.80000, 1.48961E-003, 33.42641, 1.79899, 1.69806E-002
 Zone Sizing Information, THERMAL ZONE 25, Cooling, 615.70668, 708.06268, 3.57976E-002, 4.11672E-002, PHILADELPHIA INTERNATIONAL AP ANN CLG .4% CONDNS DB=>MWB, 7/21 18:15:00, 31.39150, 1.48422E-002, 33.42641, 1.79899, 1.69806E-002
 Zone Sizing Information, THERMAL ZONE 25, Heating, 1995.53948, 2494.42435, 0.10155, 0.12694, PHILADELPHIA INTERNATIONAL AP ANN HTG 99.6% CONDNS DB, 1/21 06:00:00, -10.80000, 1.48961E-003, 33.42641, 1.79899, 1.69806E-002
 Zone Sizing Information, THERMAL ZONE 3, Cooling, 1542.98978, 1774.43825, 8.97073E-002, 0.10316, PHILADELPHIA INTERNATIONAL AP ANN CLG .4% CONDNS DB=>MWB, 7/21 11:15:00, 32.07300, 1.48422E-002, 33.42641, 1.79899, 1.69806E-002
 Zone Sizing Information, THERMAL ZONE 3, Heating, 1761.66704, 2202.08381, 8.96486E-002, 0.11206, PHILADELPHIA INTERNATIONAL AP ANN HTG 99.6% CONDNS DB, 1/21 06:00:00, -10.80000, 1.48961E-003, 33.42641, 1.79899, 1.69806E-002
 Zone Sizing Information, THERMAL ZONE 22, Cooling, 795.85953, 915.23846, 4.62681E-002, 5.32083E-002, PHILADELPHIA INTERNATIONAL AP ANN CLG .4% CONDNS DB=>MWB, 7/21 17:00:00, 32.68400, 1.48422E-002, 66.29437, 3.56793, 3.36775E-002
 Zone Sizing Information, THERMAL ZONE 22, Heating, 795.88152, 994.85190, 4.05150E-002, 5.06438E-002, PHILADELPHIA INTERNATIONAL AP ANN HTG 99.6% CONDNS DB, 1/21 06:45:00, -10.80000, 1.48961E-003, 66.29437, 3.56793, 3.36775E-002
 Zone Sizing Information, THERMAL ZONE 12, Cooling, 1189.34886, 1367.75119, 6.91477E-002, 7.95199E-002, PHILADELPHIA INTERNATIONAL AP ANN CLG .4% CONDNS DB=>MWB, 7/21 18:15:00, 31.39150, 1.48422E-002, 33.42641, 1.79899, 1.69806E-002
 Zone Sizing Information, THERMAL ZONE 12, Heating, 1759.97749, 2199.97187, 8.95626E-002, 0.11195, PHILADELPHIA INTERNATIONAL AP ANN HTG 99.6% CONDNS DB, 1/21 06:00:00, -10.80000, 1.48961E-003, 33.42641, 1.79899, 1.69806E-002
 Zone Sizing Information, THERMAL ZONE 11, Cooling, 1797.53866, 2067.16946, 0.10450, 0.12018, PHILADELPHIA INTERNATIONAL AP ANN CLG .4% CONDNS DB=>MWB, 7/21 18:15:00, 31.39150, 1.48422E-002, 66.29437, 3.56793, 3.36775E-002
 Zone Sizing Information, THERMAL ZONE 11, Heating, 320.32867, 400.41084, 1.63066E-002, 3.36775E-002, PHILADELPHIA INTERNATIONAL AP ANN HTG 99.6% CONDNS DB, 1/21 07:00:00, -10.80000, 1.48961E-003, 66.29437, 3.56793, 3.36775E-002
 Zone Sizing Information, THERMAL ZONE 16, Cooling, 1678.23078, 1929.96540, 9.75681E-002, 0.11220, PHILADELPHIA INTERNATIONAL AP ANN CLG .4% CONDNS DB=>MWB, 7/21 18:15:00, 31.39150, 1.48422E-002, 66.29437, 3.56793, 3.36775E-002
 Zone Sizing Information, THERMAL ZONE 16, Heating, 325.61867, 407.02334, 1.65759E-002, 3.36775E-002, PHILADELPHIA INTERNATIONAL AP ANN HTG 99.6% CONDNS DB, 1/21 07:00:00, -10.80000, 1.48961E-003, 66.29437, 3.56793, 3.36775E-002
 Zone Sizing Information, THERMAL ZONE 5, Cooling, 1550.41429, 1782.97643, 9.01386E-002, 0.10366, PHILADELPHIA INTERNATIONAL AP ANN CLG .4% CONDNS DB=>MWB, 7/21 14:45:00, 34.00000, 1.48422E-002, 33.42641, 1.79899, 1.69806E-002
 Zone Sizing Information, THERMAL ZONE 5, Heating, 1767.00205, 2208.75256, 8.99201E-002, 0.11240, PHILADELPHIA INTERNATIONAL AP ANN HTG 99.6% CONDNS DB, 1/21 06:00:00, -10.80000, 1.48961E-003, 33.42641, 1.79899, 1.69806E-002
 Zone Sizing Information, THERMAL ZONE 20, Cooling, 1612.29495, 1854.13919, 9.37363E-002, 0.10780, PHILADELPHIA INTERNATIONAL AP ANN CLG .4% CONDNS DB=>MWB, 7/21 11:15:00, 32.07300, 1.48422E-002, 33.42641, 1.79899, 1.69806E-002
 Zone Sizing Information, THERMAL ZONE 20, Heating, 1767.00205, 2208.75256, 8.99201E-002, 0.11240, PHILADELPHIA INTERNATIONAL AP ANN HTG 99.6% CONDNS DB, 1/21 06:00:00, -10.80000, 1.48961E-003, 33.42641, 1.79899, 1.69806E-002
 Zone Sizing Information, THERMAL ZONE 21, Cooling, 1764.95546, 2029.69878, 0.10261, 0.11800, PHILADELPHIA INTERNATIONAL AP ANN CLG .4% CONDNS DB=>MWB, 7/21 17:30:00, 32.21400, 1.48422E-002, 33.42641, 1.79899, 1.69806E-002
 Zone Sizing Information, THERMAL ZONE 21, Heating, 1759.97749, 2199.97187, 8.95626E-002, 0.11195, PHILADELPHIA INTERNATIONAL AP ANN HTG 99.6% CONDNS DB, 1/21 06:00:00, -10.80000, 1.48961E-003, 33.42641, 1.79899, 1.69806E-002
 Zone Sizing Information, THERMAL ZONE 19, Cooling, 1052.93721, 1210.87780, 6.12188E-002, 7.04017E-002, PHILADELPHIA INTERNATIONAL AP ANN CLG .4% CONDNS DB=>MWB, 7/21 17:15:00, 32.44900, 1.48422E-002, 33.42641, 1.79899, 1.69806E-002
 Zone Sizing Information, THERMAL ZONE 19, Heating, 1995.53948, 2494.42435, 0.10155, 0.12694, PHILADELPHIA INTERNATIONAL AP ANN HTG 99.6% CONDNS DB, 1/21 06:00:00, -10.80000, 1.48961E-003, 33.42641, 1.79899, 1.69806E-002
 Zone Sizing Information, THERMAL ZONE 23, Cooling, 1704.81529, 1960.53758, 9.91149E-002, 0.11398, PHILADELPHIA INTERNATIONAL AP ANN CLG .4% CONDNS DB=>MWB, 7/21 17:30:00, 32.21400, 1.48422E-002, 33.42641, 1.79899, 1.69806E-002
 Zone Sizing Information, THERMAL ZONE 23, Heating, 1768.56381, 2210.70476, 8.99996E-002, 0.11250, PHILADELPHIA INTERNATIONAL AP ANN HTG 99.6% CONDNS DB, 1/21 06:00:00, -10.80000, 1.48961E-003, 33.42641, 1.79899, 1.69806E-002
 Zone Sizing Information, THERMAL ZONE 13, Cooling, 1767.36293, 2032.46737, 0.10275, 0.11816, PHILADELPHIA INTERNATIONAL AP ANN CLG .4% CONDNS DB=>MWB, 7/21 17:30:00, 32.21400, 1.48422E-002, 33.42641, 1.79899, 1.69806E-002
 Zone Sizing Information, THERMAL ZONE 13, Heating, 1775.90598, 2219.88248, 9.03732E-002, 0.11297, PHILADELPHIA INTERNATIONAL AP ANN HTG 99.6% CONDNS DB, 1/21 06:00:00, -10.80000, 1.48961E-003, 33.42641, 1.79899, 1.69806E-002
 Zone Sizing Information, THERMAL ZONE 10, Cooling, 1609.62086, 1851.06399, 9.35849E-002, 0.10762, PHILADELPHIA INTERNATIONAL AP ANN CLG .4% CONDNS DB=>MWB, 7/21 11:15:00, 32.07300, 1.48422E-002, 33.42641, 1.79899, 1.69806E-002
 Zone Sizing Information, THERMAL ZONE 10, Heating, 2470.70335, 3088.37919, 0.12571, 0.15714, PHILADELPHIA INTERNATIONAL AP ANN HTG 99.6% CONDNS DB, 1/21 06:00:00, -10.80000, 1.48961E-003, 33.42641, 1.79899, 1.69806E-002
 Zone Sizing Information, THERMAL ZONE 2, Cooling, 1485.87064, 1708.75124, 8.63862E-002, 9.93442E-002, PHILADELPHIA INTERNATIONAL AP ANN CLG .4% CONDNS DB=>MWB, 7/21 15:00:00, 34.00000, 1.48422E-002, 33.42641, 1.79899, 1.69806E-002
 Zone Sizing Information, THERMAL ZONE 2, Heating, 1761.66704, 2202.08381, 8.96486E-002, 0.11206, PHILADELPHIA INTERNATIONAL AP ANN HTG 99.6% CONDNS DB, 1/21 06:00:00, -10.80000, 1.48961E-003, 33.42641, 1.79899, 1.69806E-002
 Zone Sizing Information, THERMAL ZONE 6, Cooling, 1607.14811, 1848.22033, 9.34371E-002, 0.10745, PHILADELPHIA INTERNATIONAL AP ANN CLG .4% CONDNS DB=>MWB, 7/21 11:15:00, 32.07300, 1.48422E-002, 33.42641, 1.79899, 1.69806E-002
 Zone Sizing Information, THERMAL ZONE 6, Heating, 1751.81508, 2189.76884, 8.91472E-002, 0.11143, PHILADELPHIA INTERNATIONAL AP ANN HTG 99.6% CONDNS DB, 1/21 06:00:00, -10.80000, 1.48961E-003, 33.42641, 1.79899, 1.69806E-002
 Zone Sizing Information, THERMAL ZONE 7, Cooling, 1574.26548, 1810.40530, 9.15290E-002, 0.10526, PHILADELPHIA INTERNATIONAL AP ANN CLG .4% CONDNS DB=>MWB, 7/21 15:00:00, 34.00000, 1.48422E-002, 33.42641, 1.79899, 1.69806E-002
 Zone Sizing Information, THERMAL ZONE 7, Heating, 2470.70335, 3088.37919, 0.12571, 0.15714, PHILADELPHIA INTERNATIONAL AP ANN HTG 99.6% CONDNS DB, 1/21 06:00:00, -10.80000, 1.48961E-003, 33.42641, 1.79899, 1.69806E-002
 Zone Sizing Information, THERMAL ZONE 4, Cooling, 1546.46940, 1778.43981, 8.99093E-002, 0.10340, PHILADELPHIA INTERNATIONAL AP ANN CLG .4% CONDNS DB=>MWB, 7/21 14:45:00, 34.00000, 1.48422E-002, 33.42641, 1.79899, 1.69806E-002
 Zone Sizing Information, THERMAL ZONE 4, Heating, 1751.81508, 2189.76884, 8.91472E-002, 0.11143, PHILADELPHIA INTERNATIONAL AP ANN HTG 99.6% CONDNS DB, 1/21 06:00:00, -10.80000, 1.48961E-003, 33.42641, 1.79899, 1.69806E-002
! <System Sizing Information>, System Name, Field Description, Value
 System Sizing Information, AIR LOOP HVAC 1, Calculated Cooling Design Air Flow Rate [m3/s], 2.39088
 System Sizing Information, AIR LOOP HVAC 1, User Cooling Design Air Flow Rate [m3/s], 2.39088
 System Sizing Information, AIR LOOP HVAC 1, Calculated Heating Design Air Flow Rate [m3/s], 2.74027
 System Sizing Information, AIR LOOP HVAC 1, User Heating Design Air Flow Rate [m3/s], 2.74027
! <Component Sizing Information>, Component Type, Component Name, Input Field Description, Value
 Component Sizing Information, AirTerminal:SingleDuct:VAV:Reheat, AIR TERMINAL SINGLE DUCT VAV REHEAT 23, Maximum Air Flow Rate [m3/s], 0.12724
 Component Sizing Information, AirTerminal:SingleDuct:VAV:Reheat, AIR TERMINAL SINGLE DUCT VAV REHEAT 23, Maximum Flow per Zone Floor Area during Reheat [m3/s-m2], 1.91932E-003
 Component Sizing Information, AirTerminal:SingleDuct:VAV:Reheat, AIR TERMINAL SINGLE DUCT VAV REHEAT 23, Maximum Flow Fraction during Reheat [], 1.00000
 Component Sizing Information, AirTerminal:SingleDuct:VAV:Reheat, AIR TERMINAL SINGLE DUCT VAV REHEAT 23, Maximum Reheat Water Flow Rate [m3/s], 7.74327E-005
 Component Sizing Information, AirTerminal:SingleDuct:VAV:Reheat, AIR TERMINAL SINGLE DUCT VAV REHEAT 23, Reheat Coil Sizing Air Volume Flow Rate [m3/s], 0.10495
 Component Sizing Information, Coil:Heating:Water, COIL HEATING WATER 24, Maximum Water Flow Rate [m3/s], 7.74327E-005
 Component Sizing Information, Coil:Heating:Water, COIL HEATING WATER 24, Design Coil Load [W], 3564.24977
 Component Sizing Information, Coil:Heating:Water, COIL HEATING WATER 24, U-Factor Times Area Value [W/K], 90.50425
! <Water Heating Coil Capacity Information>,Component Type,Name,Nominal Total Capacity {W}
Water Heating Coil Capacity Information,Coil:Heating:Water,COIL HEATING WATER 24,3840.56
 Component Sizing Information, AirTerminal:SingleDuct:VAV:Reheat, AIR TERMINAL SINGLE DUCT VAV REHEAT 14, Maximum Air Flow Rate [m3/s], 0.12671
 Component Sizing Information, AirTerminal:SingleDuct:VAV:Reheat, AIR TERMINAL SINGLE DUCT VAV REHEAT 14, Maximum Flow per Zone Floor Area during Reheat [m3/s-m2], 2.03200E-003
 Component Sizing Information, AirTerminal:SingleDuct:VAV:Reheat, AIR TERMINAL SINGLE DUCT VAV REHEAT 14, Maximum Flow Fraction during Reheat [], 0.53606
 Component Sizing Information, AirTerminal:SingleDuct:VAV:Reheat, AIR TERMINAL SINGLE DUCT VAV REHEAT 14, Maximum Reheat Water Flow Rate [m3/s], 9.34870E-005
 Component Sizing Information, AirTerminal:SingleDuct:VAV:Reheat, AIR TERMINAL SINGLE DUCT VAV REHEAT 14, Reheat Coil Sizing Air Volume Flow Rate [m3/s], 0.12671
 Component Sizing Information, Coil:Heating:Water, COIL HEATING WATER 15, Maximum Water Flow Rate [m3/s], 9.34870E-005
 Component Sizing Information, Coil:Heating:Water, COIL HEATING WATER 15, Design Coil Load [W], 4303.23723
 Component Sizing Information, Coil:Heating:Water, COIL HEATING WATER 15, U-Factor Times Area Value [W/K], 90.12476
Water Heating Coil Capacity Information,Coil:Heating:Water,COIL HEATING WATER 15,4076.32
 Component Sizing Information, AirTerminal:SingleDuct:VAV:Reheat, AIR TERMINAL SINGLE DUCT VAV REHEAT 2, Maximum Air Flow Rate [m3/s], 0.15773
 Component Sizing Information, AirTerminal:SingleDuct:VAV:Reheat, AIR TERMINAL SINGLE DUCT VAV REHEAT 2, Maximum Flow per Zone Floor Area during Reheat [m3/s-m2], 2.03200E-003
 Component Sizing Information, AirTerminal:SingleDuct:VAV:Reheat, AIR TERMINAL SINGLE DUCT VAV REHEAT 2, Maximum Flow Fraction during Reheat [], 0.43063
 Component Sizing Information, AirTerminal:SingleDuct:VAV:Reheat, AIR TERMINAL SINGLE DUCT VAV REHEAT 2, Maximum Reheat Water Flow Rate [m3/s], 1.16375E-004
 Component Sizing Information, AirTerminal:SingleDuct:VAV:Reheat, AIR TERMINAL SINGLE DUCT VAV REHEAT 2, Reheat Coil Sizing Air Volume Flow Rate [m3/s], 0.15773
 Component Sizing Information, Coil:Heating:Water, COIL HEATING WATER 3, Maximum Water Flow Rate [m3/s], 1.16375E-004
 Component Sizing Information, Coil:Heating:Water, COIL HEATING WATER 3, Design Coil Load [W], 5356.76651
 Component Sizing Information, Coil:Heating:Water, COIL HEATING WATER 3, U-Factor Times Area Value [W/K], 112.18933
Water Heating Coil Capacity Information,Coil:Heating:Water,COIL HEATING WATER 3,5074.29
 Component Sizing Information, AirTerminal:SingleDuct:VAV:Reheat, AIR TERMINAL SINGLE DUCT VAV REHEAT 21, Maximum Air Flow Rate [m3/s], 0.11905
 Component Sizing Information, AirTerminal:SingleDuct:VAV:Reheat, AIR TERMINAL SINGLE DUCT VAV REHEAT 21, Maximum Flow per Zone Floor Area during Reheat [m3/s-m2], 1.79577E-003
 Component Sizing Information, AirTerminal:SingleDuct:VAV:Reheat, AIR TERMINAL SINGLE DUCT VAV REHEAT 21, Maximum Flow Fraction during Reheat [], 1.00000
 Component Sizing Information, AirTerminal:SingleDuct:VAV:Reheat, AIR TERMINAL SINGLE DUCT VAV REHEAT 21, Maximum Reheat Water Flow Rate [m3/s], 2.63511E-005
 Component Sizing Information, AirTerminal:SingleDuct:VAV:Reheat, AIR TERMINAL SINGLE DUCT VAV REHEAT 21, Reheat Coil Sizing Air Volume Flow Rate [m3/s], 3.57148E-002
 Component Sizing Information, Coil:Heating:Water, COIL HEATING WATER 22, Maximum Water Flow Rate [m3/s], 2.63511E-005
 Component Sizing Information, Coil:Heating:Water, COIL HEATING WATER 22, Design Coil Load [W], 1212.95029
 Component Sizing Information, Coil:Heating:Water, COIL HEATING WATER 22, U-Factor Times Area Value [W/K], 84.67800
Water Heating Coil Capacity Information,Coil:Heating:Water,COIL HEATING WATER 22,2171.58
 Component Sizing Information, AirTerminal:SingleDuct:VAV:Reheat, AIR TERMINAL SINGLE DUCT VAV REHEAT 6, Maximum Air Flow Rate [m3/s], 0.12671
 Component Sizing Information, AirTerminal:SingleDuct:VAV:Reheat, AIR TERMINAL SINGLE DUCT VAV REHEAT 6, Maximum Flow per Zone Floor Area during Reheat [m3/s-m2], 2.03200E-003
 Component Sizing Information, AirTerminal:SingleDuct:VAV:Reheat, AIR TERMINAL SINGLE DUCT VAV REHEAT 6, Maximum Flow Fraction during Reheat [], 0.53606
 Component Sizing Information, AirTerminal:SingleDuct:VAV:Reheat, AIR TERMINAL SINGLE DUCT VAV REHEAT 6, Maximum Reheat Water Flow Rate [m3/s], 9.34870E-005
 Component Sizing Information, AirTerminal:SingleDuct:VAV:Reheat, AIR TERMINAL SINGLE DUCT VAV REHEAT 6, Reheat Coil Sizing Air Volume Flow Rate [m3/s], 0.12671
 Component Sizing Information, Coil:Heating:Water, COIL HEATING WATER 7, Maximum Water Flow Rate [m3/s], 9.34870E-005
 Component Sizing Information, Coil:Heating:Water, COIL HEATING WATER 7, Design Coil Load [W], 4303.23723
 Component Sizing Information, Coil:Heating:Water, COIL HEATING WATER 7, U-Factor Times Area Value [W/K], 90.12476
Water Heating Coil Capacity Information,Coil:Heating:Water,COIL HEATING WATER 7,4076.32
 Component Sizing Information, AirTerminal:SingleDuct:VAV:Reheat, AIR TERMINAL SINGLE DUCT VAV REHEAT 16, Maximum Air Flow Rate [m3/s], 0.11250
 Component Sizing Information, AirTerminal:SingleDuct:VAV:Reheat, AIR TERMINAL SINGLE DUCT VAV REHEAT 16, Maximum Flow per Zone Floor Area during Reheat [m3/s-m2], 2.03200E-003
 Component Sizing Information, AirTerminal:SingleDuct:VAV:Reheat, AIR TERMINAL SINGLE DUCT VAV REHEAT 16, Maximum Flow Fraction during Reheat [], 0.60376
 Component Sizing Information, AirTerminal:SingleDuct:VAV:Reheat, AIR TERMINAL SINGLE DUCT VAV REHEAT 16, Maximum Reheat Water Flow Rate [m3/s], 8.30045E-005
 Component Sizing Information, AirTerminal:SingleDuct:VAV:Reheat, AIR TERMINAL SINGLE DUCT VAV REHEAT 16, Reheat Coil Sizing Air Volume Flow Rate [m3/s], 0.11250
 Component Sizing Information, Coil:Heating:Water, COIL HEATING WATER 17, Maximum Water Flow Rate [m3/s], 8.30045E-005
 Component Sizing Information, Coil:Heating:Water, COIL HEATING WATER 17, Design Coil Load [W], 3820.72245
 Component Sizing Information, Coil:Heating:Water, COIL HEATING WATER 17, U-Factor Times Area Value [W/K], 80.01922
Water Heating Coil Capacity Information,Coil:Heating:Water,COIL HEATING WATER 17,3619.25
 Component Sizing Information, AirTerminal:SingleDuct:VAV:Reheat, AIR TERMINAL SINGLE DUCT VAV REHEAT 17, Maximum Air Flow Rate [m3/s], 0.11297
 Component Sizing Information, AirTerminal:SingleDuct:VAV:Reheat, AIR TERMINAL SINGLE DUCT VAV REHEAT 17, Maximum Flow per Zone Floor Area during Reheat [m3/s-m2], 2.03200E-003
 Component Sizing Information, AirTerminal:SingleDuct:VAV:Reheat, AIR TERMINAL SINGLE DUCT VAV REHEAT 17, Maximum Flow Fraction during Reheat [], 0.60126
 Component Sizing Information, AirTerminal:SingleDuct:VAV:Reheat, AIR TERMINAL SINGLE DUCT VAV REHEAT 17, Maximum Reheat Water Flow Rate [m3/s], 8.33491E-005
 Component Sizing Information, AirTerminal:SingleDuct:VAV:Reheat, AIR TERMINAL SINGLE DUCT VAV REHEAT 17, Reheat Coil Sizing Air Volume Flow Rate [m3/s], 0.11297
 Component Sizing Information, Coil:Heating:Water, COIL HEATING WATER 18, Maximum Water Flow Rate [m3/s], 8.33491E-005
 Component Sizing Information, Coil:Heating:Water, COIL HEATING WATER 18, Design Coil Load [W], 3836.58364
 Component Sizing Information, Coil:Heating:Water, COIL HEATING WATER 18, U-Factor Times Area Value [W/K], 80.35141
Water Heating Coil Capacity Information,Coil:Heating:Water,COIL HEATING WATER 18,3634.27
 Component Sizing Information, AirTerminal:SingleDuct:VAV:Reheat, AIR TERMINAL SINGLE DUCT VAV REHEAT 9, Maximum Air Flow Rate [m3/s], 0.15773
 Component Sizing Information, AirTerminal:SingleDuct:VAV:Reheat, AIR TERMINAL SINGLE DUCT VAV REHEAT 9, Maximum Flow per Zone Floor Area during Reheat [m3/s-m2], 2.03200E-003
 Component Sizing Information, AirTerminal:SingleDuct:VAV:Reheat, AIR TERMINAL SINGLE DUCT VAV REHEAT 9, Maximum Flow Fraction during Reheat [], 0.43063
 Component Sizing Information, AirTerminal:SingleDuct:VAV:Reheat, AIR TERMINAL SINGLE DUCT VAV REHEAT 9, Maximum Reheat Water Flow Rate [m3/s], 1.16375E-004
 Component Sizing Information, AirTerminal:SingleDuct:VAV:Reheat, AIR TERMINAL SINGLE DUCT VAV REHEAT 9, Reheat Coil Sizing Air Volume Flow Rate [m3/s], 0.15773
 Component Sizing Information, Coil:Heating:Water, COIL HEATING WATER 10, Maximum Water Flow Rate [m3/s], 1.16375E-004
 Component Sizing Information, Coil:Heating:Water, COIL HEATING WATER 10, Design Coil Load [W], 5356.76651
 Component Sizing Information, Coil:Heating:Water, COIL HEATING WATER 10, U-Factor Times Area Value [W/K], 112.18933
Water Heating Coil Capacity Information,Coil:Heating:Water,COIL HEATING WATER 10,5074.29
 Component Sizing Information, AirTerminal:SingleDuct:VAV:Reheat, AIR TERMINAL SINGLE DUCT VAV REHEAT 18, Maximum Air Flow Rate [m3/s], 0.12694
 Component Sizing Information, AirTerminal:SingleDuct:VAV:Reheat, AIR TERMINAL SINGLE DUCT VAV REHEAT 18, Maximum Flow per Zone Floor Area during Reheat [m3/s-m2], 2.03200E-003
 Component Sizing Information, AirTerminal:SingleDuct:VAV:Reheat, AIR TERMINAL SINGLE DUCT VAV REHEAT 18, Maximum Flow Fraction during Reheat [], 0.53508
 Component Sizing Information, AirTerminal:SingleDuct:VAV:Reheat, AIR TERMINAL SINGLE DUCT VAV REHEAT 18, Maximum Reheat Water Flow Rate [m3/s], 9.36576E-005
 Component Sizing Information, AirTerminal:SingleDuct:VAV:Reheat, AIR TERMINAL SINGLE DUCT VAV REHEAT 18, Reheat Coil Sizing Air Volume Flow Rate [m3/s], 0.12694
 Component Sizing Information, Coil:Heating:Water, COIL HEATING WATER 19, Maximum Water Flow Rate [m3/s], 9.36576E-005
 Component Sizing Information, Coil:Heating:Water, COIL HEATING WATER 19, Design Coil Load [W], 4311.08594
 Component Sizing Information, Coil:Heating:Water, COIL HEATING WATER 19, U-Factor Times Area Value [W/K], 90.28914
Water Heating Coil Capacity Information,Coil:Heating:Water,COIL HEATING WATER 19,4083.75
 Component Sizing Information, AirTerminal:SingleDuct:VAV:Reheat, AIR TERMINAL SINGLE DUCT VAV REHEAT 22, Maximum Air Flow Rate [m3/s], 0.11206
 Component Sizing Information, AirTerminal:SingleDuct:VAV:Reheat, AIR TERMINAL SINGLE DUCT VAV REHEAT 22, Maximum Flow per Zone Floor Area during Reheat [m3/s-m2], 2.03200E-003
 Component Sizing Information, AirTerminal:SingleDuct:VAV:Reheat, AIR TERMINAL SINGLE DUCT VAV REHEAT 22, Maximum Flow Fraction during Reheat [], 0.60612
 Component Sizing Information, AirTerminal:SingleDuct:VAV:Reheat, AIR TERMINAL SINGLE DUCT VAV REHEAT 22, Maximum Reheat Water Flow Rate [m3/s], 8.26808E-005
 Component Sizing Information, AirTerminal:SingleDuct:VAV:Reheat, AIR TERMINAL SINGLE DUCT VAV REHEAT 22, Reheat Coil Sizing Air Volume Flow Rate [m3/s], 0.11206
 Component Sizing Information, Coil:Heating:Water, COIL HEATING WATER 23, Maximum Water Flow Rate [m3/s], 8.26808E-005
 Component Sizing Information, Coil:Heating:Water, COIL HEATING WATER 23, Design Coil Load [W], 3805.82324
 Component Sizing Information, Coil:Heating:Water, COIL HEATING WATER 23, U-Factor Times Area Value [W/K], 79.70718
Water Heating Coil Capacity Information,Coil:Heating:Water,COIL HEATING WATER 23,3605.13
 Component Sizing Information, AirTerminal:SingleDuct:VAV:Reheat, AIR TERMINAL SINGLE DUCT VAV REHEAT 20, Maximum Air Flow Rate [m3/s], 5.32083E-002
 Component Sizing Information, AirTerminal:SingleDuct:VAV:Reheat, AIR TERMINAL SINGLE DUCT VAV REHEAT 20, Maximum Flow per Zone Floor Area during Reheat [m3/s-m2], 8.02606E-004
 Component Sizing Information, AirTerminal:SingleDuct:VAV:Reheat, AIR TERMINAL SINGLE DUCT VAV REHEAT 20, Maximum Flow Fraction during Reheat [], 1.00000
 Component Sizing Information, AirTerminal:SingleDuct:VAV:Reheat, AIR TERMINAL SINGLE DUCT VAV REHEAT 20, Maximum Reheat Water Flow Rate [m3/s], 3.73661E-005
 Component Sizing Information, AirTerminal:SingleDuct:VAV:Reheat, AIR TERMINAL SINGLE DUCT VAV REHEAT 20, Reheat Coil Sizing Air Volume Flow Rate [m3/s], 5.06438E-002
 Component Sizing Information, Coil:Heating:Water, COIL HEATING WATER 21, Maximum Water Flow Rate [m3/s], 3.73661E-005
 Component Sizing Information, Coil:Heating:Water, COIL HEATING WATER 21, Design Coil Load [W], 1719.97125
 Component Sizing Information, Coil:Heating:Water, COIL HEATING WATER 21, U-Factor Times Area Value [W/K], 37.84627
Water Heating Coil Capacity Information,Coil:Heating:Water,COIL HEATING WATER 21,1685.43
 Component Sizing Information, AirTerminal:SingleDuct:VAV:Reheat, AIR TERMINAL SINGLE DUCT VAV REHEAT 13, Maximum Air Flow Rate [m3/s], 0.11195
 Component Sizing Information, AirTerminal:SingleDuct:VAV:Reheat, AIR TERMINAL SINGLE DUCT VAV REHEAT 13, Maximum Flow per Zone Floor Area during Reheat [m3/s-m2], 2.03200E-003
 Component Sizing Information, AirTerminal:SingleDuct:VAV:Reheat, AIR TERMINAL SINGLE DUCT VAV REHEAT 13, Maximum Flow Fraction during Reheat [], 0.60670
 Component Sizing Information, AirTerminal:SingleDuct:VAV:Reheat, AIR TERMINAL SINGLE DUCT VAV REHEAT 13, Maximum Reheat Water Flow Rate [m3/s], 8.26015E-005
 Component Sizing Information, AirTerminal:SingleDuct:VAV:Reheat, AIR TERMINAL SINGLE DUCT VAV REHEAT 13, Reheat Coil Sizing Air Volume Flow Rate [m3/s], 0.11195
 Component Sizing Information, Coil:Heating:Water, COIL HEATING WATER 14, Maximum Water Flow Rate [m3/s], 8.26015E-005
 Component Sizing Information, Coil:Heating:Water, COIL HEATING WATER 14, Design Coil Load [W], 3802.17172
 Component Sizing Information, Coil:Heating:Water, COIL HEATING WATER 14, U-Factor Times Area Value [W/K], 79.63071
Water Heating Coil Capacity Information,Coil:Heating:Water,COIL HEATING WATER 14,3601.68
 Component Sizing Information, AirTerminal:SingleDuct:VAV:Reheat, AIR TERMINAL SINGLE DUCT VAV REHEAT 4, Maximum Air Flow Rate [m3/s], 0.12018
 Component Sizing Information, AirTerminal:SingleDuct:VAV:Reheat, AIR TERMINAL SINGLE DUCT VAV REHEAT 4, Maximum Flow per Zone Floor Area during Reheat [m3/s-m2], 1.81280E-003
 Component Sizing Information, AirTerminal:SingleDuct:VAV:Reheat, AIR TERMINAL SINGLE DUCT VAV REHEAT 4, Maximum Flow Fraction during Reheat [], 1.00000
 Component Sizing Information, AirTerminal:SingleDuct:VAV:Reheat, AIR TERMINAL SINGLE DUCT VAV REHEAT 4, Maximum Reheat Water Flow Rate [m3/s], 2.66010E-005
 Component Sizing Information, AirTerminal:SingleDuct:VAV:Reheat, AIR TERMINAL SINGLE DUCT VAV REHEAT 4, Reheat Coil Sizing Air Volume Flow Rate [m3/s], 3.60535E-002
 Component Sizing Information, Coil:Heating:Water, COIL HEATING WATER 5, Maximum Water Flow Rate [m3/s], 2.66010E-005
 Component Sizing Information, Coil:Heating:Water, COIL HEATING WATER 5, Design Coil Load [W], 1224.45249
 Component Sizing Information, Coil:Heating:Water, COIL HEATING WATER 5, U-Factor Times Area Value [W/K], 85.48098
Water Heating Coil Capacity Information,Coil:Heating:Water,COIL HEATING WATER 5,2192.17
 Component Sizing Information, AirTerminal:SingleDuct:VAV:Reheat, AIR TERMINAL SINGLE DUCT VAV REHEAT 25, Maximum Air Flow Rate [m3/s], 0.11220
 Component Sizing Information, AirTerminal:SingleDuct:VAV:Reheat, AIR TERMINAL SINGLE DUCT VAV REHEAT 25, Maximum Flow per Zone Floor Area during Reheat [m3/s-m2], 1.69250E-003
 Component Sizing Information, AirTerminal:SingleDuct:VAV:Reheat, AIR TERMINAL SINGLE DUCT VAV REHEAT 25, Maximum Flow Fraction during Reheat [], 1.00000
 Component Sizing Information, AirTerminal:SingleDuct:VAV:Reheat, AIR TERMINAL SINGLE DUCT VAV REHEAT 25, Maximum Reheat Water Flow Rate [m3/s], 2.48358E-005
 Component Sizing Information, AirTerminal:SingleDuct:VAV:Reheat, AIR TERMINAL SINGLE DUCT VAV REHEAT 25, Reheat Coil Sizing Air Volume Flow Rate [m3/s], 3.36610E-002
 Component Sizing Information, Coil:Heating:Water, COIL HEATING WATER 26, Maximum Water Flow Rate [m3/s], 2.48358E-005
 Component Sizing Information, Coil:Heating:Water, COIL HEATING WATER 26, Design Coil Load [W], 1143.19865
 Component Sizing Information, Coil:Heating:Water, COIL HEATING WATER 26, U-Factor Times Area Value [W/K], 79.80852
Water Heating Coil Capacity Information,Coil:Heating:Water,COIL HEATING WATER 26,2046.70
 Component Sizing Information, AirTerminal:SingleDuct:VAV:Reheat, AIR TERMINAL SINGLE DUCT VAV REHEAT 8, Maximum Air Flow Rate [m3/s], 0.11240
 Component Sizing Information, AirTerminal:SingleDuct:VAV:Reheat, AIR TERMINAL SINGLE DUCT VAV REHEAT 8, Maximum Flow per Zone Floor Area during Reheat [m3/s-m2], 2.03200E-003
 Component Sizing Information, AirTerminal:SingleDuct:VAV:Reheat, AIR TERMINAL SINGLE DUCT VAV REHEAT 8, Maximum Flow Fraction during Reheat [], 0.60429
 Component Sizing Information, AirTerminal:SingleDuct:VAV:Reheat, AIR TERMINAL SINGLE DUCT VAV REHEAT 8, Maximum Reheat Water Flow Rate [m3/s], 8.29312E-005
 Component Sizing Information, AirTerminal:SingleDuct:VAV:Reheat, AIR TERMINAL SINGLE DUCT VAV REHEAT 8, Reheat Coil Sizing Air Volume Flow Rate [m3/s], 0.11240
 Component Sizing Information, Coil:Heating:Water, COIL HEATING WATER 9, Maximum Water Flow Rate [m3/s], 8.29312E-005
 Component Sizing Information, Coil:Heating:Water, COIL HEATING WATER 9, Design Coil Load [W], 3817.34827
 Component Sizing Information, Coil:Heating:Water, COIL HEATING WATER 9, U-Factor Times Area Value [W/K], 79.94855
Water Heating Coil Capacity Information,Coil:Heating:Water,COIL HEATING WATER 9,3616.05
 Component Sizing Information, AirTerminal:SingleDuct:VAV:Reheat, AIR TERMINAL SINGLE DUCT VAV REHEAT 3, Maximum Air Flow Rate [m3/s], 0.11240
 Component Sizing Information, AirTerminal:SingleDuct:VAV:Reheat, AIR TERMINAL SINGLE DUCT VAV REHEAT 3, Maximum Flow per Zone Floor Area during Reheat [m3/s-m2], 2.03200E-003
 Component Sizing Information, AirTerminal:SingleDuct:VAV:Reheat, AIR TERMINAL SINGLE DUCT VAV REHEAT 3, Maximum Flow Fraction during Reheat [], 0.60429
 Component Sizing Information, AirTerminal:SingleDuct:VAV:Reheat, AIR TERMINAL SINGLE DUCT VAV REHEAT 3, Maximum Reheat Water Flow Rate [m3/s], 8.29312E-005
 Component Sizing Information, AirTerminal:SingleDuct:VAV:Reheat, AIR TERMINAL SINGLE DUCT VAV REHEAT 3, Reheat Coil Sizing Air Volume Flow Rate [m3/s], 0.11240
 Component Sizing Information, Coil:Heating:Water, COIL HEATING WATER 4, Maximum Water Flow Rate [m3/s], 8.29312E-005
 Component Sizing Information, Coil:Heating:Water, COIL HEATING WATER 4, Design Coil Load [W], 3817.34827
 Component Sizing Information, Coil:Heating:Water, COIL HEATING WATER 4, U-Factor Times Area Value [W/K], 79.94855
Water Heating Coil Capacity Information,Coil:Heating:Water,COIL HEATING WATER 4,3616.05
 Component Sizing Information, AirTerminal:SingleDuct:VAV:Reheat, AIR TERMINAL SINGLE DUCT VAV REHEAT 24, Maximum Air Flow Rate [m3/s], 0.11800
 Component Sizing Information, AirTerminal:SingleDuct:VAV:Reheat, AIR TERMINAL SINGLE DUCT VAV REHEAT 24, Maximum Flow per Zone Floor Area during Reheat [m3/s-m2], 2.03200E-003
 Component Sizing Information, AirTerminal:SingleDuct:VAV:Reheat, AIR TERMINAL SINGLE DUCT VAV REHEAT 24, Maximum Flow Fraction during Reheat [], 0.57560
 Component Sizing Information, AirTerminal:SingleDuct:VAV:Reheat, AIR TERMINAL SINGLE DUCT VAV REHEAT 24, Maximum Reheat Water Flow Rate [m3/s], 8.26015E-005
 Component Sizing Information, AirTerminal:SingleDuct:VAV:Reheat, AIR TERMINAL SINGLE DUCT VAV REHEAT 24, Reheat Coil Sizing Air Volume Flow Rate [m3/s], 0.11195
 Component Sizing Information, Coil:Heating:Water, COIL HEATING WATER 25, Maximum Water Flow Rate [m3/s], 8.26015E-005
 Component Sizing Information, Coil:Heating:Water, COIL HEATING WATER 25, Design Coil Load [W], 3802.17172
 Component Sizing Information, Coil:Heating:Water, COIL HEATING WATER 25, U-Factor Times Area Value [W/K], 83.93366
Water Heating Coil Capacity Information,Coil:Heating:Water,COIL HEATING WATER 25,3734.00
 Component Sizing Information, AirTerminal:SingleDuct:VAV:Reheat, AIR TERMINAL SINGLE DUCT VAV REHEAT 11, Maximum Air Flow Rate [m3/s], 0.12694
 Component Sizing Information, AirTerminal:SingleDuct:VAV:Reheat, AIR TERMINAL SINGLE DUCT VAV REHEAT 11, Maximum Flow per Zone Floor Area during Reheat [m3/s-m2], 2.03200E-003
 Component Sizing Information, AirTerminal:SingleDuct:VAV:Reheat, AIR TERMINAL SINGLE DUCT VAV REHEAT 11, Maximum Flow Fraction during Reheat [], 0.53508
 Component Sizing Information, AirTerminal:SingleDuct:VAV:Reheat, AIR TERMINAL SINGLE DUCT VAV REHEAT 11, Maximum Reheat Water Flow Rate [m3/s], 9.36576E-005
 Component Sizing Information, AirTerminal:SingleDuct:VAV:Reheat, AIR TERMINAL SINGLE DUCT VAV REHEAT 11, Reheat Coil Sizing Air Volume Flow Rate [m3/s], 0.12694
 Component Sizing Information, Coil:Heating:Water, COIL HEATING WATER 12, Maximum Water Flow Rate [m3/s], 9.36576E-005
 Component Sizing Information, Coil:Heating:Water, COIL HEATING WATER 12, Design Coil Load [W], 4311.08594
 Component Sizing Information, Coil:Heating:Water, COIL HEATING WATER 12, U-Factor Times Area Value [W/K], 90.28914
Water Heating Coil Capacity Information,Coil:Heating:Water,COIL HEATING WATER 12,4083.75
 Component Sizing Information, AirTerminal:SingleDuct:VAV:Reheat, AIR TERMINAL SINGLE DUCT VAV REHEAT 12, Maximum Air Flow Rate [m3/s], 0.11398
 Component Sizing Information, AirTerminal:SingleDuct:VAV:Reheat, AIR TERMINAL SINGLE DUCT VAV REHEAT 12, Maximum Flow per Zone Floor Area during Reheat [m3/s-m2], 2.03200E-003
 Component Sizing Information, AirTerminal:SingleDuct:VAV:Reheat, AIR TERMINAL SINGLE DUCT VAV REHEAT 12, Maximum Flow Fraction during Reheat [], 0.59590
 Component Sizing Information, AirTerminal:SingleDuct:VAV:Reheat, AIR TERMINAL SINGLE DUCT VAV REHEAT 12, Maximum Reheat Water Flow Rate [m3/s], 8.30045E-005
 Component Sizing Information, AirTerminal:SingleDuct:VAV:Reheat, AIR TERMINAL SINGLE DUCT VAV REHEAT 12, Reheat Coil Sizing Air Volume Flow Rate [m3/s], 0.11250
 Component Sizing Information, Coil:Heating:Water, COIL HEATING WATER 13, Maximum Water Flow Rate [m3/s], 8.30045E-005
 Component Sizing Information, Coil:Heating:Water, COIL HEATING WATER 13, Design Coil Load [W], 3820.72245
 Component Sizing Information, Coil:Heating:Water, COIL HEATING WATER 13, U-Factor Times Area Value [W/K], 81.07385
Water Heating Coil Capacity Information,Coil:Heating:Water,COIL HEATING WATER 13,3652.10
 Component Sizing Information, AirTerminal:SingleDuct:VAV:Reheat, AIR TERMINAL SINGLE DUCT VAV REHEAT 15, Maximum Air Flow Rate [m3/s], 0.11816
 Component Sizing Information, AirTerminal:SingleDuct:VAV:Reheat, AIR TERMINAL SINGLE DUCT VAV REHEAT 15, Maximum Flow per Zone Floor Area during Reheat [m3/s-m2], 2.03200E-003
[...]
 Warmup Convergence Information,THERMAL ZONE 8,SizingPeriod: PHILADELPHIA INTERNATIONAL AP ANN HUM_N 99.6% CONDNS DP=>MCDB,2.8394052556E-002,0.1170036597,Pass,Pass,9.7297768976E-003,4.0533866377E-002,Pass,Pass
 Warmup Convergence Information,THERMAL ZONE 25,SizingPeriod: PHILADELPHIA INTERNATIONAL AP ANN HUM_N 99.6% CONDNS DP=>MCDB,2.6865310540E-002,9.2950942498E-002,Pass,Pass,5.1855919072E-003,1.9745341310E-002,Pass,Pass
 Warmup Convergence Information,THERMAL ZONE 3,SizingPeriod: PHILADELPHIA INTERNATIONAL AP ANN HUM_N 99.6% CONDNS DP=>MCDB,2.5507691285E-002,9.2609404032E-002,Pass,Pass,6.3394037001E-003,2.4660230886E-002,Pass,Pass
 Warmup Convergence Information,THERMAL ZONE 22,SizingPeriod: PHILADELPHIA INTERNATIONAL AP ANN HUM_N 99.6% CONDNS DP=>MCDB,7.2177897260E-003,5.5452187041E-003,Pass,Pass,8.5505829699E-004,1.0261269203E-003,Pass,Pass
 Warmup Convergence Information,THERMAL ZONE 12,SizingPeriod: PHILADELPHIA INTERNATIONAL AP ANN HUM_N 99.6% CONDNS DP=>MCDB,2.4776090303E-002,9.2599661869E-002,Pass,Pass,6.3994912308E-003,2.5113029781E-002,Pass,Pass
 Warmup Convergence Information,THERMAL ZONE 11,SizingPeriod: PHILADELPHIA INTERNATIONAL AP ANN HUM_N 99.6% CONDNS DP=>MCDB,8.3803090083E-004,5.5074446468E-004,Pass,Pass,5.6204594133E-003,5.1747971616E-003,Pass,Pass
 Warmup Convergence Information,THERMAL ZONE 16,SizingPeriod: PHILADELPHIA INTERNATIONAL AP ANN HUM_N 99.6% CONDNS DP=>MCDB,8.8720953643E-004,9.0416837456E-004,Pass,Pass,5.6150734012E-003,5.2120569405E-003,Pass,Pass
 Warmup Convergence Information,THERMAL ZONE 5,SizingPeriod: PHILADELPHIA INTERNATIONAL AP ANN HUM_N 99.6% CONDNS DP=>MCDB,2.5182283646E-002,9.2607406137E-002,Pass,Pass,6.4766146846E-003,2.4908164991E-002,Pass,Pass
 Warmup Convergence Information,THERMAL ZONE 20,SizingPeriod: PHILADELPHIA INTERNATIONAL AP ANN HUM_N 99.6% CONDNS DP=>MCDB,2.5279414275E-002,9.2668361762E-002,Pass,Pass,6.3472071773E-003,2.4739112580E-002,Pass,Pass
 Warmup Convergence Information,THERMAL ZONE 21,SizingPeriod: PHILADELPHIA INTERNATIONAL AP ANN HUM_N 99.6% CONDNS DP=>MCDB,1.7235515596E-002,7.0065576913E-002,Pass,Pass,9.3849942359E-003,3.6742788525E-002,Pass,Pass
 Warmup Convergence Information,THERMAL ZONE 19,SizingPeriod: PHILADELPHIA INTERNATIONAL AP ANN HUM_N 99.6% CONDNS DP=>MCDB,2.6827279509E-002,9.2964080267E-002,Pass,Pass,5.1759987781E-003,1.9741442195E-002,Pass,Pass
 Warmup Convergence Information,THERMAL ZONE 23,SizingPeriod: PHILADELPHIA INTERNATIONAL AP ANN HUM_N 99.6% CONDNS DP=>MCDB,2.3356677961E-002,8.9008429619E-002,Pass,Pass,7.7159302429E-003,2.9318804112E-002,Pass,Pass
 Warmup Convergence Information,THERMAL ZONE 13,SizingPeriod: PHILADELPHIA INTERNATIONAL AP ANN HUM_N 99.6% CONDNS DP=>MCDB,1.8303750596E-002,7.4214054013E-002,Pass,Pass,8.9276744937E-003,3.6440138908E-002,Pass,Pass
 Warmup Convergence Information,THERMAL ZONE 10,SizingPeriod: PHILADELPHIA INTERNATIONAL AP ANN HUM_N 99.6% CONDNS DP=>MCDB,2.8265477589E-002,0.1172656032,Pass,Pass,9.5844885372E-003,4.0684020163E-002,Pass,Pass
 Warmup Convergence Information,THERMAL ZONE 2,SizingPeriod: PHILADELPHIA INTERNATIONAL AP ANN HUM_N 99.6% CONDNS DP=>MCDB,2.5415215281E-002,9.2830468576E-002,Pass,Pass,6.1184121655E-003,2.4278834113E-002,Pass,Pass
 Warmup Convergence Information,THERMAL ZONE 6,SizingPeriod: PHILADELPHIA INTERNATIONAL AP ANN HUM_N 99.6% CONDNS DP=>MCDB,2.5061843355E-002,9.2830970096E-002,Pass,Pass,6.3902834350E-003,2.4935429214E-002,Pass,Pass
 Warmup Convergence Information,THERMAL ZONE 7,SizingPeriod: PHILADELPHIA INTERNATIONAL AP ANN HUM_N 99.6% CONDNS DP=>MCDB,2.8122571473E-002,0.1171958791,Pass,Pass,9.4567486216E-003,4.0756280531E-002,Pass,Pass
 Warmup Convergence Information,THERMAL ZONE 4,SizingPeriod: PHILADELPHIA INTERNATIONAL AP ANN HUM_N 99.6% CONDNS DP=>MCDB,2.4856886278E-002,9.2801166600E-002,Pass,Pass,6.4129608554E-003,2.5134629154E-002,Pass,Pass
Environment,PHILADELPHIA INTERNATIONAL AP ANN CLG .4% CONDNS DP=>MDB,SizingPeriod:DesignDay,07/21,07/21,SummerDesignDay,1,N/A,N/A,N/A,N/A,N/A,N/A
Environment:Daylight Saving,No,SizingPeriod:DesignDay
Environment:Design Day Data,28.10,9.40,DefaultMultipliers,101301,240,5.0,0.00,No ,No 
Environment:Design_Day_Misc,202,1084.4,0.2082,0.1365,1.0,-6.23,20.6,ASHRAETau
Environment:WarmupDays,  6
 Warmup Convergence Information,THERMAL ZONE 14,SizingPeriod: PHILADELPHIA INTERNATIONAL AP ANN CLG .4% CONDNS DP=>MDB,9.6706478077E-005,2.4253908307E-004,Pass,Pass,8.7957669842E-003,2.6595909439E-002,Pass,Pass
 Warmup Convergence Information,THERMAL ZONE 15,SizingPeriod: PHILADELPHIA INTERNATIONAL AP ANN CLG .4% CONDNS DP=>MDB,7.6144924410E-002,5.9350952273E-002,Pass,Pass,1.0926322457E-002,2.3421214335E-002,Pass,Pass
 Warmup Convergence Information,THERMAL ZONE 9,SizingPeriod: PHILADELPHIA INTERNATIONAL AP ANN CLG .4% CONDNS DP=>MDB,5.1352419028E-002,6.3481993652E-002,Pass,Pass,1.4020282698E-002,1.7263511393E-002,Pass,Pass
 Warmup Convergence Information,THERMAL ZONE 1,SizingPeriod: PHILADELPHIA INTERNATIONAL AP ANN CLG .4% CONDNS DP=>MDB,7.2135953959E-005,1.6901046447E-004,Pass,Pass,3.8836334343E-003,1.1172403412E-002,Pass,Pass
 Warmup Convergence Information,THERMAL ZONE 18,SizingPeriod: PHILADELPHIA INTERNATIONAL AP ANN CLG .4% CONDNS DP=>MDB,7.4842307331E-002,8.6683282782E-002,Pass,Pass,1.1253953932E-002,1.4202832310E-002,Pass,Pass
 Warmup Convergence Information,THERMAL ZONE 17,SizingPeriod: PHILADELPHIA INTERNATIONAL AP ANN CLG .4% CONDNS DP=>MDB,3.3107459472E-002,6.7977280107E-002,Pass,Pass,9.3897492004E-003,1.7628557703E-002,Pass,Pass
 Warmup Convergence Information,THERMAL ZONE 24,SizingPeriod: PHILADELPHIA INTERNATIONAL AP ANN CLG .4% CONDNS DP=>MDB,2.4261926113E-002,6.2718400851E-002,Pass,Pass,1.0918806018E-002,2.5496683581E-002,Pass,Pass
 Warmup Convergence Information,THERMAL ZONE 8,SizingPeriod: PHILADELPHIA INTERNATIONAL AP ANN CLG .4% CONDNS DP=>MDB,5.5032455557E-002,6.8445162155E-002,Pass,Pass,5.1314301499E-003,6.2228842673E-003,Pass,Pass
 Warmup Convergence Information,THERMAL ZONE 25,SizingPeriod: PHILADELPHIA INTERNATIONAL AP ANN CLG .4% CONDNS DP=>MDB,5.2635962318E-002,5.2788095471E-002,Pass,Pass,9.9931567906E-003,1.7621306883E-002,Pass,Pass
 Warmup Convergence Information,THERMAL ZONE 3,SizingPeriod: PHILADELPHIA INTERNATIONAL AP ANN CLG .4% CONDNS DP=>MDB,3.1067174796E-002,7.7967821485E-002,Pass,Pass,1.5971854948E-002,2.5238001644E-002,Pass,Pass
 Warmup Convergence Information,THERMAL ZONE 22,SizingPeriod: PHILADELPHIA INTERNATIONAL AP ANN CLG .4% CONDNS DP=>MDB,1.7628683598E-002,2.3607818481E-002,Pass,Pass,1.7612189777E-002,4.3590125101E-002,Pass,Pass
 Warmup Convergence Information,THERMAL ZONE 12,SizingPeriod: PHILADELPHIA INTERNATIONAL AP ANN CLG .4% CONDNS DP=>MDB,2.3635634111E-002,6.3923650835E-002,Pass,Pass,1.1344695164E-002,2.6610276582E-002,Pass,Pass
 Warmup Convergence Information,THERMAL ZONE 11,SizingPeriod: PHILADELPHIA INTERNATIONAL AP ANN CLG .4% CONDNS DP=>MDB,6.9836938705E-005,1.6706070047E-004,Pass,Pass,3.8517262610E-003,1.1093905653E-002,Pass,Pass
 Warmup Convergence Information,THERMAL ZONE 16,SizingPeriod: PHILADELPHIA INTERNATIONAL AP ANN CLG .4% CONDNS DP=>MDB,7.4346934505E-005,1.7082963846E-004,Pass,Pass,4.4303766020E-003,1.1909623897E-002,Pass,Pass
 Warmup Convergence Information,THERMAL ZONE 5,SizingPeriod: PHILADELPHIA INTERNATIONAL AP ANN CLG .4% CONDNS DP=>MDB,2.2370637399E-002,5.7830290682E-002,Pass,Pass,1.6695663592E-002,2.7413063597E-002,Pass,Pass
 Warmup Convergence Information,THERMAL ZONE 20,SizingPeriod: PHILADELPHIA INTERNATIONAL AP ANN CLG .4% CONDNS DP=>MDB,2.2233457125E-002,6.1620287832E-002,Pass,Pass,1.7796682504E-002,3.2329340514E-002,Pass,Pass
 Warmup Convergence Information,THERMAL ZONE 21,SizingPeriod: PHILADELPHIA INTERNATIONAL AP ANN CLG .4% CONDNS DP=>MDB,2.1137138356E-002,5.5127725224E-002,Pass,Pass,1.9109167882E-002,2.5000931382E-002,Pass,Pass
 Warmup Convergence Information,THERMAL ZONE 19,SizingPeriod: PHILADELPHIA INTERNATIONAL AP ANN CLG .4% CONDNS DP=>MDB,8.3410067337E-002,7.1655965796E-002,Pass,Pass,1.3111270864E-002,2.0815983013E-002,Pass,Pass
 Warmup Convergence Information,THERMAL ZONE 23,SizingPeriod: PHILADELPHIA INTERNATIONAL AP ANN CLG .4% CONDNS DP=>MDB,2.7930111783E-002,5.8943991595E-002,Pass,Pass,1.8791919122E-002,2.7070260658E-002,Pass,Pass
 Warmup Convergence Information,THERMAL ZONE 13,SizingPeriod: PHILADELPHIA INTERNATIONAL AP ANN CLG .4% CONDNS DP=>MDB,2.1607399674E-002,5.5124110684E-002,Pass,Pass,1.8943878456E-002,2.5213700233E-002,Pass,Pass
 Warmup Convergence Information,THERMAL ZONE 10,SizingPeriod: PHILADELPHIA INTERNATIONAL AP ANN CLG .4% CONDNS DP=>MDB,5.2948183948E-002,8.9972403595E-002,Pass,Pass,9.9997487791E-003,1.1205026134E-002,Pass,Pass
 Warmup Convergence Information,THERMAL ZONE 2,SizingPeriod: PHILADELPHIA INTERNATIONAL AP ANN CLG .4% CONDNS DP=>MDB,3.0958268008E-002,6.1236223515E-002,Pass,Pass,1.5615772718E-002,2.7373373469E-002,Pass,Pass
 Warmup Convergence Information,THERMAL ZONE 6,SizingPeriod: PHILADELPHIA INTERNATIONAL AP ANN CLG .4% CONDNS DP=>MDB,2.1656838746E-002,5.9830711731E-002,Pass,Pass,1.7891100398E-002,3.2112090802E-002,Pass,Pass
 Warmup Convergence Information,THERMAL ZONE 7,SizingPeriod: PHILADELPHIA INTERNATIONAL AP ANN CLG .4% CONDNS DP=>MDB,5.4114000166E-002,7.4123899260E-002,Pass,Pass,1.0318926702E-002,8.9614495465E-003,Pass,Pass
 Warmup Convergence Information,THERMAL ZONE 4,SizingPeriod: PHILADELPHIA INTERNATIONAL AP ANN CLG .4% CONDNS DP=>MDB,2.1646349889E-002,5.8516637443E-002,Pass,Pass,1.7005814283E-002,2.7290021297E-002,Pass,Pass
Environment,PHILADELPHIA INTERNATIONAL AP ANN HTG WIND 99% CONDNS WS=>MCDB,SizingPeriod:DesignDay,01/21,01/21,WinterDesignDay,1,N/A,N/A,N/A,N/A,N/A,N/A
Environment:Daylight Saving,No,SizingPeriod:DesignDay
Environment:Design Day Data,1.10,0.00,DefaultMultipliers,101301,290,11.6,0.00,No ,No 
Environment:Design_Day_Misc, 21,1229.0,0.1415,5.7310E-002,1.0,-11.15,-20.1,ASHRAEClearSky
Environment:WarmupDays,  6
 Warmup Convergence Information,THERMAL ZONE 14,SizingPeriod: PHILADELPHIA INTERNATIONAL AP ANN HTG WIND 99% CONDNS WS=>MCDB,1.6072747663E-003,1.3172325117E-003,Pass,Pass,1.4468729472E-002,8.3840839427E-002,Pass,Pass
 Warmup Convergence Information,THERMAL ZONE 15,SizingPeriod: PHILADELPHIA INTERNATIONAL AP ANN HTG WIND 99% CONDNS WS=>MCDB,2.5466318090E-004,9.4489877437E-004,Pass,Pass,6.6551656203E-003,4.5440130754E-002,Pass,Pass
 Warmup Convergence Information,THERMAL ZONE 9,SizingPeriod: PHILADELPHIA INTERNATIONAL AP ANN HTG WIND 99% CONDNS WS=>MCDB,3.5149910750E-003,2.4393074161E-003,Pass,Pass,1.4201881766E-002,7.2185711120E-002,Pass,Pass
 Warmup Convergence Information,THERMAL ZONE 1,SizingPeriod: PHILADELPHIA INTERNATIONAL AP ANN HTG WIND 99% CONDNS WS=>MCDB,1.1870859283E-003,7.5286830785E-004,Pass,Pass,1.1094485728E-002,5.1958987307E-003,Pass,Pass
 Warmup Convergence Information,THERMAL ZONE 18,SizingPeriod: PHILADELPHIA INTERNATIONAL AP ANN HTG WIND 99% CONDNS WS=>MCDB,2.5476419242E-004,9.4485933946E-004,Pass,Pass,6.6551608913E-003,4.5440099621E-002,Pass,Pass
 Warmup Convergence Information,THERMAL ZONE 17,SizingPeriod: PHILADELPHIA INTERNATIONAL AP ANN HTG WIND 99% CONDNS WS=>MCDB,3.8507336990E-003,1.7853613977E-003,Pass,Pass,1.2299587024E-002,5.8697728539E-002,Pass,Pass
 Warmup Convergence Information,THERMAL ZONE 24,SizingPeriod: PHILADELPHIA INTERNATIONAL AP ANN HTG WIND 99% CONDNS WS=>MCDB,1.5165382094E-004,6.1295786253E-004,Pass,Pass,8.5766423444E-003,5.9360745948E-002,Pass,Pass
 Warmup Convergence Information,THERMAL ZONE 8,SizingPeriod: PHILADELPHIA INTERNATIONAL AP ANN HTG WIND 99% CONDNS WS=>MCDB,3.4576943477E-003,2.4543542441E-003,Pass,Pass,1.4146418964E-002,7.2194285332E-002,Pass,Pass
 Warmup Convergence Information,THERMAL ZONE 25,SizingPeriod: PHILADELPHIA INTERNATIONAL AP ANN HTG WIND 99% CONDNS WS=>MCDB,1.5899101870E-003,2.3735554280E-003,Pass,Pass,7.7665447966E-003,4.5816591538E-002,Pass,Pass
 Warmup Convergence Information,THERMAL ZONE 3,SizingPeriod: PHILADELPHIA INTERNATIONAL AP ANN HTG WIND 99% CONDNS WS=>MCDB,1.3855649299E-003,2.0395499490E-003,Pass,Pass,9.9158539860E-003,6.0156763232E-002,Pass,Pass
 Warmup Convergence Information,THERMAL ZONE 22,SizingPeriod: PHILADELPHIA INTERNATIONAL AP ANN HTG WIND 99% CONDNS WS=>MCDB,3.9193932110E-004,1.3981914633E-003,Pass,Pass,5.8829256922E-004,2.6692239506E-003,Pass,Pass
 Warmup Convergence Information,THERMAL ZONE 12,SizingPeriod: PHILADELPHIA INTERNATIONAL AP ANN HTG WIND 99% CONDNS WS=>MCDB,1.6429970145E-003,1.6008800128E-003,Pass,Pass,1.1109928159E-002,5.9755675453E-002,Pass,Pass
 Warmup Convergence Information,THERMAL ZONE 11,SizingPeriod: PHILADELPHIA INTERNATIONAL AP ANN HTG WIND 99% CONDNS WS=>MCDB,1.5817316469E-005,3.5975082981E-005,Pass,Pass,7.1824625537E-005,1.7715172300E-004,Pass,Pass
 Warmup Convergence Information,THERMAL ZONE 16,SizingPeriod: PHILADELPHIA INTERNATIONAL AP ANN HTG WIND 99% CONDNS WS=>MCDB,9.0993697724E-004,5.2606129963E-004,Pass,Pass,7.8548711454E-003,3.8792751125E-003,Pass,Pass
 Warmup Convergence Information,THERMAL ZONE 5,SizingPeriod: PHILADELPHIA INTERNATIONAL AP ANN HTG WIND 99% CONDNS WS=>MCDB,1.5898022730E-003,1.5068382247E-003,Pass,Pass,1.1232854362E-002,5.9491130151E-002,Pass,Pass
 Warmup Convergence Information,THERMAL ZONE 20,SizingPeriod: PHILADELPHIA INTERNATIONAL AP ANN HTG WIND 99% CONDNS WS=>MCDB,1.5900379467E-003,1.5064695377E-003,Pass,Pass,1.1232920156E-002,5.9490985577E-002,Pass,Pass
 Warmup Convergence Information,THERMAL ZONE 21,SizingPeriod: PHILADELPHIA INTERNATIONAL AP ANN HTG WIND 99% CONDNS WS=>MCDB,4.3711146386E-003,1.2960043424E-003,Pass,Pass,1.4874419831E-002,5.9227129548E-002,Pass,Pass
 Warmup Convergence Information,THERMAL ZONE 19,SizingPeriod: PHILADELPHIA INTERNATIONAL AP ANN HTG WIND 99% CONDNS WS=>MCDB,1.5900813542E-003,2.3735161912E-003,Pass,Pass,7.7665762956E-003,4.5816394771E-002,Pass,Pass
 Warmup Convergence Information,THERMAL ZONE 23,SizingPeriod: PHILADELPHIA INTERNATIONAL AP ANN HTG WIND 99% CONDNS WS=>MCDB,1.6289826987E-003,1.5640853989E-003,Pass,Pass,1.1134981676E-002,5.8531431656E-002,Pass,Pass
 Warmup Convergence Information,THERMAL ZONE 13,SizingPeriod: PHILADELPHIA INTERNATIONAL AP ANN HTG WIND 99% CONDNS WS=>MCDB,1.9391728503E-003,2.2112508206E-003,Pass,Pass,1.0515264543E-002,5.9130635741E-002,Pass,Pass
 Warmup Convergence Information,THERMAL ZONE 10,SizingPeriod: PHILADELPHIA INTERNATIONAL AP ANN HTG WIND 99% CONDNS WS=>MCDB,1.4433608973E-003,2.4281498155E-003,Pass,Pass,1.1585398094E-002,7.3442541416E-002,Pass,Pass
 Warmup Convergence Information,THERMAL ZONE 2,SizingPeriod: PHILADELPHIA INTERNATIONAL AP ANN HTG WIND 99% CONDNS WS=>MCDB,1.5157749454E-003,2.0704674935E-003,Pass,Pass,9.8699188809E-003,5.9305349701E-002,Pass,Pass
 Warmup Convergence Information,THERMAL ZONE 6,SizingPeriod: PHILADELPHIA INTERNATIONAL AP ANN HTG WIND 99% CONDNS WS=>MCDB,1.5621537134E-004,6.1669936571E-004,Pass,Pass,8.7153605203E-003,6.0348003392E-002,Pass,Pass
 Warmup Convergence Information,THERMAL ZONE 7,SizingPeriod: PHILADELPHIA INTERNATIONAL AP ANN HTG WIND 99% CONDNS WS=>MCDB,1.4432927512E-003,2.4280597259E-003,Pass,Pass,1.1585414312E-002,7.3442577716E-002,Pass,Pass
 Warmup Convergence Information,THERMAL ZONE 4,SizingPeriod: PHILADELPHIA INTERNATIONAL AP ANN HTG WIND 99% CONDNS WS=>MCDB,1.5420646618E-004,6.1800971861E-004,Pass,Pass,8.7153078838E-003,6.0348251822E-002,Pass,Pass
Environment,RUN PERIOD 1,WeatherFileRunPeriod,01/01,12/31,Thursday,365,Use RunPeriod Specified Day,Yes,Yes,No ,Yes,Yes
Environment:Daylight Saving,Yes,InputFile,03/08,11/01
Environment:WarmupDays,  6
 Warmup Convergence Information,THERMAL ZONE 14,RunPeriod: RUN PERIOD 1,4.5527570315E-002,8.0233895753E-002,Pass,Pass,0.1628384623,0.9128975908,Pass,Pass
 Warmup Convergence Information,THERMAL ZONE 15,RunPeriod: RUN PERIOD 1,2.0220998876E-002,4.8568883868E-002,Pass,Pass,0.2459069745,0.7756553630,Pass,Pass
 Warmup Convergence Information,THERMAL ZONE 9,RunPeriod: RUN PERIOD 1,1.8309171692E-003,1.6733078653E-003,Pass,Pass,0.1848210115,0.4782514822,Pass,Pass
 Warmup Convergence Information,THERMAL ZONE 1,RunPeriod: RUN PERIOD 1,7.9633358189E-002,0.1360177741,Pass,Pass,1.7812901873E-002,3.9004533457E-002,Pass,Pass
 Warmup Convergence Information,THERMAL ZONE 18,RunPeriod: RUN PERIOD 1,1.6872172294E-003,1.6887353041E-003,Pass,Pass,0.4886866443,1.7872537660,Pass,Pass
 Warmup Convergence Information,THERMAL ZONE 17,RunPeriod: RUN PERIOD 1,1.1613515682E-003,1.2056433876E-003,Pass,Pass,0.2053544118,1.0957751559,Pass,Pass
 Warmup Convergence Information,THERMAL ZONE 24,RunPeriod: RUN PERIOD 1,1.1857116013E-003,1.2213609009E-003,Pass,Pass,0.1914055828,0.9721423373,Pass,Pass
 Warmup Convergence Information,THERMAL ZONE 8,RunPeriod: RUN PERIOD 1,1.7740892584E-003,1.7521625601E-003,Pass,Pass,0.1667616442,0.4595113295,Pass,Pass
 Warmup Convergence Information,THERMAL ZONE 25,RunPeriod: RUN PERIOD 1,2.0612410783E-003,2.0485986817E-003,Pass,Pass,9.2302299328E-002,0.2623013858,Pass,Pass
 Warmup Convergence Information,THERMAL ZONE 3,RunPeriod: RUN PERIOD 1,1.3021315538E-003,1.1802540929E-003,Pass,Pass,0.1328887354,0.4346202154,Pass,Pass
 Warmup Convergence Information,THERMAL ZONE 22,RunPeriod: RUN PERIOD 1,5.6669895224E-002,9.7608540031E-002,Pass,Pass,6.0295782840E-002,0.1805717369,Pass,Pass
 Warmup Convergence Information,THERMAL ZONE 12,RunPeriod: RUN PERIOD 1,1.4549420189E-003,1.1852513368E-003,Pass,Pass,0.1498227374,0.6820816284,Pass,Pass
 Warmup Convergence Information,THERMAL ZONE 11,RunPeriod: RUN PERIOD 1,7.5952802900E-002,0.1304999266,Pass,Pass,2.1956315744E-002,4.6950281753E-002,Pass,Pass
 Warmup Convergence Information,THERMAL ZONE 16,RunPeriod: RUN PERIOD 1,7.7593825198E-002,0.1313422766,Pass,Pass,2.2250382179E-002,4.9756578010E-002,Pass,Pass
 Warmup Convergence Information,THERMAL ZONE 5,RunPeriod: RUN PERIOD 1,4.7322794481E-002,8.4662486968E-002,Pass,Pass,0.1828915943,0.7491113339,Pass,Pass
 Warmup Convergence Information,THERMAL ZONE 20,RunPeriod: RUN PERIOD 1,1.3304195909E-003,1.3236336164E-003,Pass,Pass,0.1262171085,0.3985201872,Pass,Pass
 Warmup Convergence Information,THERMAL ZONE 21,RunPeriod: RUN PERIOD 1,1.0541016336E-002,2.7829173620E-002,Pass,Pass,0.1286999750,0.3879815770,Pass,Pass
 Warmup Convergence Information,THERMAL ZONE 19,RunPeriod: RUN PERIOD 1,1.5589592230E-003,1.7378314751E-003,Pass,Pass,0.4018090874,2.0603827291,Pass,Pass
 Warmup Convergence Information,THERMAL ZONE 23,RunPeriod: RUN PERIOD 1,1.0665665281E-002,2.8522627364E-002,Pass,Pass,0.1534980122,0.5392902791,Pass,Pass
 Warmup Convergence Information,THERMAL ZONE 13,RunPeriod: RUN PERIOD 1,9.1753391765E-003,2.4094081860E-002,Pass,Pass,0.1517107147,0.5055082901,Pass,Pass
 Warmup Convergence Information,THERMAL ZONE 10,RunPeriod: RUN PERIOD 1,1.8799533003E-003,1.9798390687E-003,Pass,Pass,0.2271721364,0.7235289214,Pass,Pass
 Warmup Convergence Information,THERMAL ZONE 2,RunPeriod: RUN PERIOD 1,4.7798114216E-002,8.5188391054E-002,Pass,Pass,0.5485905053,4.2396162151,Pass,Pass
 Warmup Convergence Information,THERMAL ZONE 6,RunPeriod: RUN PERIOD 1,1.3688049616E-003,1.3803192123E-003,Pass,Pass,0.1502804382,0.5590875713,Pass,Pass
 Warmup Convergence Information,THERMAL ZONE 7,RunPeriod: RUN PERIOD 1,8.6948896176E-003,2.0451106959E-002,Pass,Pass,0.3700709912,1.3095774994,Pass,Pass
 Warmup Convergence Information,THERMAL ZONE 4,RunPeriod: RUN PERIOD 1,4.9578104550E-002,8.5055168218E-002,Pass,Pass,0.1135565721,0.3109922700,Pass,Pass
! <Program Control Information:Threads/Parallel Sims>, Threading Supported,Maximum Number of Threads, Env Set Threads (OMP_NUM_THREADS), EP Env Set Threads (EP_OMP_NUM_THREADS), IDF Set Threads, Number of Threads Used (Interior Radiant Exchange), Number Nominal Surfaces, Number Parallel Sims
Program Control:Threads/Parallel Sims, Yes,1, Not Set, Not Set, 1, 1, 170, N/A
End of Data
