Program Version,EnergyPlus-Linux-OMP-32 7.2.0.006, YMD=2013.07.01 21:17
