Program Version,EnergyPlus-Linux-OMP-32 7.2.0.006, YMD=2013.07.08 15:40
! <Version>, Version ID
 Version, 7.2
! <Timesteps per Hour>, #TimeSteps, Minutes per TimeStep {minutes}
 Timesteps per Hour,  4, 15
! <System Convergence Limits>, Minimum System TimeStep {minutes}, Max HVAC Iterations,  Minimum Plant Iterations, Maximum Plant Iterations
 System Convergence Limits, 1, 20, 2, 8
! <Simulation Control>, Do Zone Sizing, Do System Sizing, Do Plant Sizing, Do Design Days, Do Weather Simulation
 Simulation Control, Yes, Yes, Yes, Yes, Yes
! <Output Reporting Tolerances>, Tolerance for Time Heating Setpoint Not Met, Tolerance for Time Cooling Setpoint Not Met
 Output Reporting Tolerances, 0.200, 0.200, 
! <Site:GroundTemperature:BuildingSurface>, Months From Jan to Dec {Deg C}
 Site:GroundTemperature:BuildingSurface,  18.00,  18.00,  18.00,  18.00,  18.00,  18.00,  18.00,  18.00,  18.00,  18.00,  18.00,  18.00
! <Site:GroundTemperature:FCfactorMethod>, Months From Jan to Dec {Deg C}
 Site:GroundTemperature:FCfactorMethod, -21.19, -22.92, -19.85, -15.04,  -2.48,   7.21,  13.75,  15.74,  12.35,   4.82,  -5.23, -14.57
! <Site:GroundTemperature:Shallow>, Months From Jan to Dec {Deg C}
 Site:GroundTemperature:Shallow,  13.00,  13.00,  13.00,  13.00,  13.00,  13.00,  13.00,  13.00,  13.00,  13.00,  13.00,  13.00
! <Site:GroundTemperature:Deep>, Months From Jan to Dec {Deg C}
 Site:GroundTemperature:Deep,  16.00,  16.00,  16.00,  16.00,  16.00,  16.00,  16.00,  16.00,  16.00,  16.00,  16.00,  16.00
! <Site:GroundReflectance>, Months From Jan to Dec {dimensionless}
 Site:GroundReflectance,  0.20,  0.20,  0.20,  0.20,  0.20,  0.20,  0.20,  0.20,  0.20,  0.20,  0.20,  0.20
! <Site:GroundReflectance:SnowModifier>, Normal, Daylighting {dimensionless}
 Site:GroundReflectance:SnowModifier,   1.000,   1.000
! <Site:GroundReflectance:Snow>, Months From Jan to Dec {dimensionless}
 Site:GroundReflectance:Snow,  0.20,  0.20,  0.20,  0.20,  0.20,  0.20,  0.20,  0.20,  0.20,  0.20,  0.20,  0.20
! <Site:GroundReflectance:Snow:Daylighting>, Months From Jan to Dec {dimensionless}
 Site:GroundReflectance:Snow:Daylighting,  0.20,  0.20,  0.20,  0.20,  0.20,  0.20,  0.20,  0.20,  0.20,  0.20,  0.20,  0.20
! <Environment:Weather Station>,Wind Sensor Height Above Ground {m},Wind Speed Profile Exponent {},Wind Speed Profile Boundary Layer Thickness {m},Air Temperature Sensor Height Above Ground {m},Wind Speed Modifier Coefficient [Internal],Temperature Modifier Coefficient [Internal]
Environment:Weather Station,10.000,0.140,270.000,1.500,1.586,9.750E-003
! <Site:Location>, Location Name, Latitude {N+/S- Deg}, Longitude {E+/W- Deg},  Time Zone Number {GMT+/-}, Elevation {m},  Standard Pressure at Elevation {Pa}, Standard RhoAir at Elevation
Site:Location,Fairbanks/Int'l Airpor AK USA TMY--26411 WMO#=702610,64.82,-147.87,-9.00,138.00,99678,1.1847
! <Building Information>, Building Name,North Axis {deg},Terrain,  Loads Convergence Tolerance Value,Temperature Convergence Tolerance Value,  Solar Distribution,Maximum Number of Warmup Days,Minimum Number of Warmup Days
 Building Information,Building 1,0.000,Suburbs,4.00000E-002,0.40000,FullExterior,25,6
! <Inside Convection Algorithm>, Algorithm {Simple | TARP | CeilingDiffuser | AdaptiveConvectionAlgorithm}
Inside Convection Algorithm,TARP
! <Outside Convection Algorithm>, Algorithm {SimpleCombined | TARP | MoWitt | DOE-2 | AdaptiveConvectionAlgorithm}
Outside Convection Algorithm,DOE-2
! <Sky Radiance Distribution>, Value {Anisotropic}
Sky Radiance Distribution,Anisotropic
! <Zone Air Solution Algorithm>, Value {ThirdOrderBackwardDifference | AnalyticalSolution | EulerMethod}
 Zone Air Solution Algorithm, ThirdOrderBackwardDifference
! <Zone Air Contaminant Balance Simulation>, Simulation {Yes/No}, Carbon Dioxide Concentration
 Zone Air Carbon Dioxide Balance Simulation, No,N/A
! <Zone Air Contaminant Balance Simulation>, Simulation {Yes/No}, Generic Contaminant Concentration
 Zone Air Generic Contaminant Balance Simulation, No,N/A
! <Environment:Site Atmospheric Variation>,Wind Speed Profile Exponent {},Wind Speed Profile Boundary Layer Thickness {m},Air Temperature Gradient Coefficient {K/m}
Environment:Site Atmospheric Variation,0.220,370.000,6.500000E-003
! <SurfaceGeometry>,Starting Corner,Vertex Input Direction,Coordinate System,Daylight Reference Point Coordinate System,Rectangular (Simple) Surface Coordinate System
 Surface Geometry,UpperLeftCorner,Counterclockwise,RelativeCoordinateSystem,RelativeCoordinateSystem,RelativeToZoneOrigin
! <Surface Heat Transfer Algorithm>, Value {CTF - ConductionTransferFunction | EMPD - MoisturePenetrationDepthConductionTransferFunction | CondFD - ConductionFiniteDifference | HAMT - CombinedHeatAndMoistureFiniteElement} - Description,Inside Surface Max Temperature Limit{C}, Surface Convection Coefficient Lower Limit {W/m2-K}, Surface Convection Coefficient Upper Limit {W/m2-K}
Surface Heat Transfer Algorithm, CTF - ConductionTransferFunction,200,0.10,1000.0
! <Shading Summary>, Number of Fixed Detached Shades, Number of Building Detached Shades, Number of Attached Shades
 Shading Summary,0,0,0
! <Zone Summary>, Number of Zones, Number of Zone Surfaces, Number of SubSurfaces
 Zone Summary,5,34,4
! <Zone Information>,Zone Name,North Axis {deg},Origin X-Coordinate {m},Origin Y-Coordinate {m},Origin Z-Coordinate {m},Centroid X-Coordinate {m},Centroid Y-Coordinate {m},Centroid Z-Coordinate {m},Type,Zone Multiplier,Zone List Multiplier,Minimum X {m},Maximum X {m},Minimum Y {m},Maximum Y {m},Minimum Z {m},Maximum Z {m},Ceiling Height {m},Volume {m3},Zone Inside Convection Algorithm {Simple-Detailed-CeilingDiffuser-TrombeWall},Zone Outside Convection Algorithm {Simple-Detailed-Tarp-MoWitt-DOE-2-BLAST}, Floor Area {m2},Exterior Gross Wall Area {m2},Exterior Net Wall Area {m2},Exterior Window Area {m2}, Number of Surfaces, Number of SubSurfaces, Number of Shading SubSurfaces,  Part of Total Building Area
 Zone Information, THERMAL ZONE 5,0.0,3.00,4.07,0.00,3.54,6.07,2.00,1,1,1,0.00,7.07,4.07,7.07,0.00,4.00,4.00,48.85,TARP,DOE-2,12.21,28.28,25.46,2.83,6,1,0,Yes
 Zone Information, THERMAL ZONE 2,0.0,3.00,3.00,0.00,3.54,3.54,2.00,1,1,1,3.00,4.07,3.00,4.07,0.00,4.00,4.00,4.59,TARP,DOE-2,1.15,0.00,0.00,0.00,6,0,0,Yes
 Zone Information, THERMAL ZONE 3,0.0,4.07,3.00,0.00,6.07,3.54,2.00,1,1,1,4.07,7.07,0.00,7.07,0.00,4.00,4.00,48.85,TARP,DOE-2,12.21,28.28,25.46,2.83,6,1,0,Yes
 Zone Information, THERMAL ZONE 4,0.0,0.00,0.00,0.00,3.54,1.01,2.00,1,1,1,0.00,7.07,0.00,3.00,0.00,4.00,4.00,48.85,TARP,DOE-2,12.21,28.28,25.46,2.83,6,1,0,Yes
 Zone Information, THERMAL ZONE 1,0.0,0.00,0.00,0.00,1.01,3.54,2.00,1,1,1,0.00,3.00,0.00,7.07,0.00,4.00,4.00,48.85,TARP,DOE-2,12.21,28.28,25.46,2.83,6,1,0,Yes
! <Zone Internal Gains/Equipment Information - Nominal>,Zone Name, Floor Area {m2},# Occupants,Area per Occupant {m2/person},Occupant per Area {person/m2},Interior Lighting {W/m2},Electric Load {W/m2},Gas Load {W/m2},Other Load {W/m2},Hot Water Eq {W/m2},Steam Equipment {W/m2},Sum Loads per Area {W/m2},Outdoor Controlled Baseboard Heat
 Zone Internal Gains, THERMAL ZONE 5,12.21,0.7,18.581,5.382E-002,10.764,10.764,0.000,0.000,0.000,0.000,21.528,No
 Zone Internal Gains, THERMAL ZONE 2,1.15,6.2E-002,18.581,5.382E-002,10.764,10.764,0.000,0.000,0.000,0.000,21.528,No
 Zone Internal Gains, THERMAL ZONE 3,12.21,0.7,18.581,5.382E-002,10.764,10.764,0.000,0.000,0.000,0.000,21.528,No
 Zone Internal Gains, THERMAL ZONE 4,12.21,0.7,18.581,5.382E-002,10.764,10.764,0.000,0.000,0.000,0.000,21.528,No
 Zone Internal Gains, THERMAL ZONE 1,12.21,0.7,18.581,5.382E-002,10.764,10.764,0.000,0.000,0.000,0.000,21.528,No
! <People Internal Gains - Nominal>,Name,Schedule Name,Zone Name,Zone Floor Area {m2},# Zone Occupants,Number of People {},People/Floor Area {person/m2},Floor Area per person {m2/person},Fraction Radiant,Fraction Convected,Sensible Fraction Calculation,Activity level,ASHRAE 55 Warnings,Carbon Dioxide Generation Rate 
 People Internal Gains, THERMAL ZONE 1 ASHRAE_90.1-2004 CLIMATEZONE 1-8 SMALLOFFICE WHOLEBUILDING PEOPLE,SMALL OFFICE_BLDG_OCC,THERMAL ZONE 1,12.21,0.7,0.7,5.382E-002,18.581,0.300,0.700,AutoCalculate,SMALL OFFICE_ACTIVITY,No,3.8200E-008
 People Internal Gains, THERMAL ZONE 2 ASHRAE_90.1-2004 CLIMATEZONE 1-8 SMALLOFFICE WHOLEBUILDING PEOPLE,SMALL OFFICE_BLDG_OCC,THERMAL ZONE 2,1.15,6.2E-002,6.2E-002,5.382E-002,18.581,0.300,0.700,AutoCalculate,SMALL OFFICE_ACTIVITY,No,3.8200E-008
 People Internal Gains, THERMAL ZONE 3 ASHRAE_90.1-2004 CLIMATEZONE 1-8 SMALLOFFICE WHOLEBUILDING PEOPLE,SMALL OFFICE_BLDG_OCC,THERMAL ZONE 3,12.21,0.7,0.7,5.382E-002,18.581,0.300,0.700,AutoCalculate,SMALL OFFICE_ACTIVITY,No,3.8200E-008
 People Internal Gains, THERMAL ZONE 4 ASHRAE_90.1-2004 CLIMATEZONE 1-8 SMALLOFFICE WHOLEBUILDING PEOPLE,SMALL OFFICE_BLDG_OCC,THERMAL ZONE 4,12.21,0.7,0.7,5.382E-002,18.581,0.300,0.700,AutoCalculate,SMALL OFFICE_ACTIVITY,No,3.8200E-008
 People Internal Gains, THERMAL ZONE 5 ASHRAE_90.1-2004 CLIMATEZONE 1-8 SMALLOFFICE WHOLEBUILDING PEOPLE,SMALL OFFICE_BLDG_OCC,THERMAL ZONE 5,12.21,0.7,0.7,5.382E-002,18.581,0.300,0.700,AutoCalculate,SMALL OFFICE_ACTIVITY,No,3.8200E-008
! <Lights Internal Gains - Nominal>,Name,Schedule Name,Zone Name,Zone Floor Area {m2},# Zone Occupants,Lighting Level {W},Lights/Floor Area {W/m2},Lights per person {W/person},Fraction Return Air,Fraction Radiant,Fraction Short Wave,Fraction Convected,Fraction Replaceable,EndUse Category
 Lights Internal Gains, THERMAL ZONE 1 ASHRAE_90.1-2004 CLIMATEZONE 1-8 SMALLOFFICE WHOLEBUILDING LIGHTS,SMALL OFFICE_BLDG_LIGHT,THERMAL ZONE 1,12.21,0.7,131.462,10.764,200.000,0.000,0.000,0.000,1.000,1.000,General
 Lights Internal Gains, THERMAL ZONE 2 ASHRAE_90.1-2004 CLIMATEZONE 1-8 SMALLOFFICE WHOLEBUILDING LIGHTS,SMALL OFFICE_BLDG_LIGHT,THERMAL ZONE 2,1.15,6.2E-002,12.348,10.764,200.000,0.000,0.000,0.000,1.000,1.000,General
 Lights Internal Gains, THERMAL ZONE 3 ASHRAE_90.1-2004 CLIMATEZONE 1-8 SMALLOFFICE WHOLEBUILDING LIGHTS,SMALL OFFICE_BLDG_LIGHT,THERMAL ZONE 3,12.21,0.7,131.462,10.764,200.000,0.000,0.000,0.000,1.000,1.000,General
 Lights Internal Gains, THERMAL ZONE 4 ASHRAE_90.1-2004 CLIMATEZONE 1-8 SMALLOFFICE WHOLEBUILDING LIGHTS,SMALL OFFICE_BLDG_LIGHT,THERMAL ZONE 4,12.21,0.7,131.462,10.764,200.000,0.000,0.000,0.000,1.000,1.000,General
 Lights Internal Gains, THERMAL ZONE 5 ASHRAE_90.1-2004 CLIMATEZONE 1-8 SMALLOFFICE WHOLEBUILDING LIGHTS,SMALL OFFICE_BLDG_LIGHT,THERMAL ZONE 5,12.21,0.7,131.462,10.764,200.000,0.000,0.000,0.000,1.000,1.000,General
! <ElectricEquipment Internal Gains - Nominal>,Name,Schedule Name,Zone Name,Zone Floor Area {m2},# Zone Occupants,Equipment Level {W},Equipment/Floor Area {W/m2},Equipment per person {W/person},Fraction Latent,Fraction Radiant,Fraction Lost,Fraction Convected,EndUse SubCategory
 ElectricEquipment Internal Gains, THERMAL ZONE 1 ASHRAE_90.1-2004 CLIMATEZONE 1-8 SMALLOFFICE WHOLEBUILDING ELECTRIC EQUIPMENT,SMALL OFFICE_BLDG_EQUIP,THERMAL ZONE 1,12.21,0.7,131.462,10.764,200.000,0.000,0.000,0.000,1.000,General
 ElectricEquipment Internal Gains, THERMAL ZONE 2 ASHRAE_90.1-2004 CLIMATEZONE 1-8 SMALLOFFICE WHOLEBUILDING ELECTRIC EQUIPMENT,SMALL OFFICE_BLDG_EQUIP,THERMAL ZONE 2,1.15,6.2E-002,12.348,10.764,200.000,0.000,0.000,0.000,1.000,General
 ElectricEquipment Internal Gains, THERMAL ZONE 3 ASHRAE_90.1-2004 CLIMATEZONE 1-8 SMALLOFFICE WHOLEBUILDING ELECTRIC EQUIPMENT,SMALL OFFICE_BLDG_EQUIP,THERMAL ZONE 3,12.21,0.7,131.462,10.764,200.000,0.000,0.000,0.000,1.000,General
 ElectricEquipment Internal Gains, THERMAL ZONE 4 ASHRAE_90.1-2004 CLIMATEZONE 1-8 SMALLOFFICE WHOLEBUILDING ELECTRIC EQUIPMENT,SMALL OFFICE_BLDG_EQUIP,THERMAL ZONE 4,12.21,0.7,131.462,10.764,200.000,0.000,0.000,0.000,1.000,General
 ElectricEquipment Internal Gains, THERMAL ZONE 5 ASHRAE_90.1-2004 CLIMATEZONE 1-8 SMALLOFFICE WHOLEBUILDING ELECTRIC EQUIPMENT,SMALL OFFICE_BLDG_EQUIP,THERMAL ZONE 5,12.21,0.7,131.462,10.764,200.000,0.000,0.000,0.000,1.000,General
! <Shadowing/Sun Position Calculations> [Annual Simulations], Value {days}, Allowable Number Figures in Shadow Overlap {}, Polygon Clipping Algorithm, Sky Diffuse Modeling Algorithm
Shadowing/Sun Position Calculations,20,15000,SutherlandHodgman,SimpleSkyDiffuseModeling
! <Infiltration Airflow Stats - Nominal>,Name,Schedule Name,Zone Name, Zone Floor Area {m2}, # Zone Occupants,Design Volume Flow Rate {m3/s},Volume Flow Rate/Floor Area {m3/s/m2},Volume Flow Rate/Exterior Surface Area {m3/s/m2},ACH - Air Changes per Hour,Equation A - Constant Term Coefficient {},Equation B - Temperature Term Coefficient {1/C},Equation C - Velocity Term Coefficient {s/m}, Equation D - Velocity Squared Term Coefficient {s2/m2}
 ZoneInfiltration Airflow Stats, THERMAL ZONE 1 ASHRAE_90.1-2004 CLIMATEZONE 1-8 SMALLOFFICE WHOLEBUILDING INFILTRATION,SMALL OFFICE_INFIL_QUARTER_ON,THERMAL ZONE 1,12.21,0.7,1.224E-002,1.002E-003,3.023E-004,0.902,1.000,0.000,0.000,0.000
 ZoneInfiltration Airflow Stats, THERMAL ZONE 2 ASHRAE_90.1-2004 CLIMATEZONE 1-8 SMALLOFFICE WHOLEBUILDING INFILTRATION,SMALL OFFICE_INFIL_QUARTER_ON,THERMAL ZONE 2,1.15,6.2E-002,3.467E-004,3.023E-004,3.023E-004,0.272,1.000,0.000,0.000,0.000
 ZoneInfiltration Airflow Stats, THERMAL ZONE 3 ASHRAE_90.1-2004 CLIMATEZONE 1-8 SMALLOFFICE WHOLEBUILDING INFILTRATION,SMALL OFFICE_INFIL_QUARTER_ON,THERMAL ZONE 3,12.21,0.7,1.224E-002,1.002E-003,3.023E-004,0.902,1.000,0.000,0.000,0.000
 ZoneInfiltration Airflow Stats, THERMAL ZONE 4 ASHRAE_90.1-2004 CLIMATEZONE 1-8 SMALLOFFICE WHOLEBUILDING INFILTRATION,SMALL OFFICE_INFIL_QUARTER_ON,THERMAL ZONE 4,12.21,0.7,1.224E-002,1.002E-003,3.023E-004,0.902,1.000,0.000,0.000,0.000
 ZoneInfiltration Airflow Stats, THERMAL ZONE 5 ASHRAE_90.1-2004 CLIMATEZONE 1-8 SMALLOFFICE WHOLEBUILDING INFILTRATION,SMALL OFFICE_INFIL_QUARTER_ON,THERMAL ZONE 5,12.21,0.7,1.224E-002,1.002E-003,3.023E-004,0.902,1.000,0.000,0.000,0.000
! <AirFlow Model>, Simple
 AirFlow Model, Simple
! <RoomAir Model>, Zone Name, Mixing/Mundt/UCSDDV/UCSDCV/UCSDUFI/UCSDUFE/User Defined
RoomAir Model,THERMAL ZONE 5,Mixing/Well-Stirred
RoomAir Model,THERMAL ZONE 2,Mixing/Well-Stirred
RoomAir Model,THERMAL ZONE 3,Mixing/Well-Stirred
RoomAir Model,THERMAL ZONE 4,Mixing/Well-Stirred
RoomAir Model,THERMAL ZONE 1,Mixing/Well-Stirred
! <AirflowNetwork Model:Control>, No Multizone or Distribution/Multizone with Distribution/Multizone without Distribution/Multizone with Distribution only during Fan Operation
AirflowNetwork Model:Control,NoMultizoneOrDistribution
! <Zone Volume Capacitance Multiplier>, Sensible Heat Capacity Multiplier, Moisture Capacity Multiplier, Carbon Dioxide Capacity Multiplier, Generic Contaminant Capacity Multiplier
Zone Volume Capacitance Multiplier,   1.000 ,   1.000,   1.000,   1.000
! <Load Timesteps in Zone Design Calculation Averaging Window>, Value
 Load Timesteps in Zone Design Calculation Averaging Window,    4
! <Heating Sizing Factor Information>, Sizing Factor ID, Value
 Heating Sizing Factor Information, Global,   1.2500    
 Heating Sizing Factor Information, Zone THERMAL ZONE 5,   1.2500    
 Heating Sizing Factor Information, Zone THERMAL ZONE 2,   1.2500    
 Heating Sizing Factor Information, Zone THERMAL ZONE 3,   1.2500    
 Heating Sizing Factor Information, Zone THERMAL ZONE 4,   1.2500    
 Heating Sizing Factor Information, Zone THERMAL ZONE 1,   1.2500    
! <Cooling Sizing Factor Information>, Sizing Factor ID, Value
 Cooling Sizing Factor Information, Global,   1.1500    
 Cooling Sizing Factor Information, Zone THERMAL ZONE 5,   1.1500    
 Cooling Sizing Factor Information, Zone THERMAL ZONE 2,   1.1500    
 Cooling Sizing Factor Information, Zone THERMAL ZONE 3,   1.1500    
 Cooling Sizing Factor Information, Zone THERMAL ZONE 4,   1.1500    
 Cooling Sizing Factor Information, Zone THERMAL ZONE 1,   1.1500    
! <Zone Sizing Information>, Zone Name, Load Type, Calc Des Load {W}, User Des Load {W}, Calc Des Air Flow Rate {m3/s}, User Des Air Flow Rate {m3/s}, Design Day Name, Date/Time of Peak, Temperature at Peak {C}, Humidity Ratio at Peak {kgWater/kgDryAir}, Floor Area {m2}, # Occupants, Calc Outdoor Air Flow Rate {m3/s}
 Zone Sizing Information, THERMAL ZONE 5, Cooling, 219.99914, 252.99901, 1.29971E-002, 1.49467E-002, FAIRBANKS/INT'L AIRPOR ANN CLG .4% CONDNS DB=>MWB, 7/21 20:45:00, 21.61150, 6.98677E-003, 12.21320, 0.65731, 6.20431E-003
 Zone Sizing Information, THERMAL ZONE 5, Heating, 2315.42210, 2894.27763, 0.11970, 0.14963, FAIRBANKS/INT'L AIRPOR ANN HTG 99.6% CONDNS DB, 1/21 06:00:00, -41.90000, 6.45405E-005, 12.21320, 0.65731, 6.20431E-003
 Zone Sizing Information, THERMAL ZONE 2, Cooling, 20.89681, 24.03133, 1.23455E-003, 1.41974E-003, FAIRBANKS/INT'L AIRPOR ANN CLG .4% CONDNS DB=>MWB, 7/21 19:15:00, 23.14150, 6.98677E-003, 1.14719, 6.17411E-002, 5.82771E-004
 Zone Sizing Information, THERMAL ZONE 2, Heating, 116.13655, 145.17069, 6.00733E-003, 7.50916E-003, FAIRBANKS/INT'L AIRPOR ANN HTG 99.6% CONDNS DB, 1/21 06:00:00, -41.90000, 6.45405E-005, 1.14719, 6.17411E-002, 5.82771E-004
 Zone Sizing Information, THERMAL ZONE 3, Cooling, 363.06592, 417.52581, 2.14490E-002, 2.46664E-002, FAIRBANKS/INT'L AIRPOR ANN CLG .4% CONDNS DB=>MWB, 7/21 12:00:00, 26.07400, 6.98677E-003, 12.21320, 0.65731, 6.20431E-003
 Zone Sizing Information, THERMAL ZONE 3, Heating, 2315.42210, 2894.27763, 0.11970, 0.14963, FAIRBANKS/INT'L AIRPOR ANN HTG 99.6% CONDNS DB, 1/21 06:00:00, -41.90000, 6.45405E-005, 12.21320, 0.65731, 6.20431E-003
 Zone Sizing Information, THERMAL ZONE 4, Cooling, 485.91336, 558.80037, 2.87062E-002, 3.30122E-002, FAIRBANKS/INT'L AIRPOR ANN CLG .4% CONDNS DB=>MWB, 7/21 15:45:00, 26.94100, 6.98677E-003, 12.21320, 0.65731, 6.20431E-003
 Zone Sizing Information, THERMAL ZONE 4, Heating, 2317.00717, 2896.25896, 0.11978, 0.14973, FAIRBANKS/INT'L AIRPOR ANN HTG 99.6% CONDNS DB, 1/21 06:00:00, -41.90000, 6.45405E-005, 12.21320, 0.65731, 6.20431E-003
 Zone Sizing Information, THERMAL ZONE 1, Cooling, 493.03902, 566.99487, 2.91272E-002, 3.34963E-002, FAIRBANKS/INT'L AIRPOR ANN CLG .4% CONDNS DB=>MWB, 7/21 19:00:00, 23.42200, 6.98677E-003, 12.21320, 0.65731, 6.20431E-003
 Zone Sizing Information, THERMAL ZONE 1, Heating, 2317.00717, 2896.25896, 0.11978, 0.14973, FAIRBANKS/INT'L AIRPOR ANN HTG 99.6% CONDNS DB, 1/21 06:00:00, -41.90000, 6.45405E-005, 12.21320, 0.65731, 6.20431E-003
! <System Sizing Information>, System Name, Field Description, Value
 System Sizing Information, AIR LOOP HVAC 1, Calculated Cooling Design Air Flow Rate [m3/s], 0.10754
 System Sizing Information, AIR LOOP HVAC 1, User Cooling Design Air Flow Rate [m3/s], 0.10754
 System Sizing Information, AIR LOOP HVAC 1, Calculated Heating Design Air Flow Rate [m3/s], 0.60622
 System Sizing Information, AIR LOOP HVAC 1, User Heating Design Air Flow Rate [m3/s], 0.60622
! <Component Sizing Information>, Component Type, Component Name, Input Field Description, Value
 Component Sizing Information, AirTerminal:SingleDuct:VAV:Reheat, AIR TERMINAL SINGLE DUCT VAV REHEAT 6, Maximum Air Flow Rate [m3/s], 0.14963
 Component Sizing Information, AirTerminal:SingleDuct:VAV:Reheat, AIR TERMINAL SINGLE DUCT VAV REHEAT 6, Maximum Flow per Zone Floor Area during Reheat [m3/s-m2], 3.67536E-003
 Component Sizing Information, AirTerminal:SingleDuct:VAV:Reheat, AIR TERMINAL SINGLE DUCT VAV REHEAT 6, Maximum Flow Fraction during Reheat [], 0.30000
 Component Sizing Information, AirTerminal:SingleDuct:VAV:Reheat, AIR TERMINAL SINGLE DUCT VAV REHEAT 6, Maximum Reheat Water Flow Rate [m3/s], 1.08629E-004
 Component Sizing Information, AirTerminal:SingleDuct:VAV:Reheat, AIR TERMINAL SINGLE DUCT VAV REHEAT 6, Reheat Coil Sizing Air Volume Flow Rate [m3/s], 0.14963
 Component Sizing Information, Coil:Heating:Water, COIL HEATING WATER 7, Maximum Water Flow Rate [m3/s], 1.08629E-004
 Component Sizing Information, Coil:Heating:Water, COIL HEATING WATER 7, Design Coil Load [W], 5000.21745
 Component Sizing Information, Coil:Heating:Water, COIL HEATING WATER 7, U-Factor Times Area Value [W/K], 104.72195
! <Water Heating Coil Capacity Information>,Component Type,Name,Nominal Total Capacity {W}
Water Heating Coil Capacity Information,Coil:Heating:Water,COIL HEATING WATER 7,4736.72
 Component Sizing Information, AirTerminal:SingleDuct:VAV:Reheat, AIR TERMINAL SINGLE DUCT VAV REHEAT 4, Maximum Air Flow Rate [m3/s], 7.50916E-003
 Component Sizing Information, AirTerminal:SingleDuct:VAV:Reheat, AIR TERMINAL SINGLE DUCT VAV REHEAT 4, Maximum Flow per Zone Floor Area during Reheat [m3/s-m2], 2.03200E-003
 Component Sizing Information, AirTerminal:SingleDuct:VAV:Reheat, AIR TERMINAL SINGLE DUCT VAV REHEAT 4, Maximum Flow Fraction during Reheat [], 0.31043
 Component Sizing Information, AirTerminal:SingleDuct:VAV:Reheat, AIR TERMINAL SINGLE DUCT VAV REHEAT 4, Maximum Reheat Water Flow Rate [m3/s], 5.45166E-006
 Component Sizing Information, AirTerminal:SingleDuct:VAV:Reheat, AIR TERMINAL SINGLE DUCT VAV REHEAT 4, Reheat Coil Sizing Air Volume Flow Rate [m3/s], 7.50916E-003
 Component Sizing Information, Coil:Heating:Water, COIL HEATING WATER 5, Maximum Water Flow Rate [m3/s], 5.45166E-006
 Component Sizing Information, Coil:Heating:Water, COIL HEATING WATER 5, Design Coil Load [W], 250.94147
 Component Sizing Information, Coil:Heating:Water, COIL HEATING WATER 5, U-Factor Times Area Value [W/K], 5.25559
Water Heating Coil Capacity Information,Coil:Heating:Water,COIL HEATING WATER 5,237.72
 Component Sizing Information, AirTerminal:SingleDuct:VAV:Reheat, AIR TERMINAL SINGLE DUCT VAV REHEAT 3, Maximum Air Flow Rate [m3/s], 0.14963
 Component Sizing Information, AirTerminal:SingleDuct:VAV:Reheat, AIR TERMINAL SINGLE DUCT VAV REHEAT 3, Maximum Flow per Zone Floor Area during Reheat [m3/s-m2], 3.67536E-003
 Component Sizing Information, AirTerminal:SingleDuct:VAV:Reheat, AIR TERMINAL SINGLE DUCT VAV REHEAT 3, Maximum Flow Fraction during Reheat [], 0.30000
 Component Sizing Information, AirTerminal:SingleDuct:VAV:Reheat, AIR TERMINAL SINGLE DUCT VAV REHEAT 3, Maximum Reheat Water Flow Rate [m3/s], 1.08629E-004
 Component Sizing Information, AirTerminal:SingleDuct:VAV:Reheat, AIR TERMINAL SINGLE DUCT VAV REHEAT 3, Reheat Coil Sizing Air Volume Flow Rate [m3/s], 0.14963
 Component Sizing Information, Coil:Heating:Water, COIL HEATING WATER 4, Maximum Water Flow Rate [m3/s], 1.08629E-004
 Component Sizing Information, Coil:Heating:Water, COIL HEATING WATER 4, Design Coil Load [W], 5000.21745
 Component Sizing Information, Coil:Heating:Water, COIL HEATING WATER 4, U-Factor Times Area Value [W/K], 104.72195
Water Heating Coil Capacity Information,Coil:Heating:Water,COIL HEATING WATER 4,4736.72
 Component Sizing Information, AirTerminal:SingleDuct:VAV:Reheat, AIR TERMINAL SINGLE DUCT VAV REHEAT 2, Maximum Air Flow Rate [m3/s], 0.14973
 Component Sizing Information, AirTerminal:SingleDuct:VAV:Reheat, AIR TERMINAL SINGLE DUCT VAV REHEAT 2, Maximum Flow per Zone Floor Area during Reheat [m3/s-m2], 3.67787E-003
 Component Sizing Information, AirTerminal:SingleDuct:VAV:Reheat, AIR TERMINAL SINGLE DUCT VAV REHEAT 2, Maximum Flow Fraction during Reheat [], 0.30000
 Component Sizing Information, AirTerminal:SingleDuct:VAV:Reheat, AIR TERMINAL SINGLE DUCT VAV REHEAT 2, Maximum Reheat Water Flow Rate [m3/s], 1.08703E-004
 Component Sizing Information, AirTerminal:SingleDuct:VAV:Reheat, AIR TERMINAL SINGLE DUCT VAV REHEAT 2, Reheat Coil Sizing Air Volume Flow Rate [m3/s], 0.14973
 Component Sizing Information, Coil:Heating:Water, COIL HEATING WATER 3, Maximum Water Flow Rate [m3/s], 1.08703E-004
 Component Sizing Information, Coil:Heating:Water, COIL HEATING WATER 3, Design Coil Load [W], 5003.64070
 Component Sizing Information, Coil:Heating:Water, COIL HEATING WATER 3, U-Factor Times Area Value [W/K], 104.79365
Water Heating Coil Capacity Information,Coil:Heating:Water,COIL HEATING WATER 3,4739.97
 Component Sizing Information, AirTerminal:SingleDuct:VAV:Reheat, AIR TERMINAL SINGLE DUCT VAV REHEAT 5, Maximum Air Flow Rate [m3/s], 0.14973
 Component Sizing Information, AirTerminal:SingleDuct:VAV:Reheat, AIR TERMINAL SINGLE DUCT VAV REHEAT 5, Maximum Flow per Zone Floor Area during Reheat [m3/s-m2], 3.67787E-003
 Component Sizing Information, AirTerminal:SingleDuct:VAV:Reheat, AIR TERMINAL SINGLE DUCT VAV REHEAT 5, Maximum Flow Fraction during Reheat [], 0.30000
 Component Sizing Information, AirTerminal:SingleDuct:VAV:Reheat, AIR TERMINAL SINGLE DUCT VAV REHEAT 5, Maximum Reheat Water Flow Rate [m3/s], 1.08703E-004
 Component Sizing Information, AirTerminal:SingleDuct:VAV:Reheat, AIR TERMINAL SINGLE DUCT VAV REHEAT 5, Reheat Coil Sizing Air Volume Flow Rate [m3/s], 0.14973
 Component Sizing Information, Coil:Heating:Water, COIL HEATING WATER 6, Maximum Water Flow Rate [m3/s], 1.08703E-004
 Component Sizing Information, Coil:Heating:Water, COIL HEATING WATER 6, Design Coil Load [W], 5003.64070
 Component Sizing Information, Coil:Heating:Water, COIL HEATING WATER 6, U-Factor Times Area Value [W/K], 104.79365
Water Heating Coil Capacity Information,Coil:Heating:Water,COIL HEATING WATER 6,4739.97
 Component Sizing Information, Branch, BRANCH {02C2F5DF-0791-43C0-ABE1-4D38F7794DD9}, Maximum Flow Rate [m3/s], 0.60622
 Component Sizing Information, AirLoopHVAC, AIR LOOP HVAC 1, Design Supply Air Flow Rate [m3/s], 0.60622
 Component Sizing Information, Controller:OutdoorAir, CONTROLLER OUTDOOR AIR 1, Maximum Outdoor Air Flow Rate [m3/s], 0.60622
 Component Sizing Information, Controller:OutdoorAir, CONTROLLER OUTDOOR AIR 1, Minimum Outdoor Air Flow Rate [m3/s], 2.54000E-002
 Component Sizing Information, Coil:Cooling:DX:TwoSpeed, COIL COOLING DX TWO SPEED 1, Rated High Speed Air Flow Rate [m3/s], 0.60622
 Component Sizing Information, Coil:Cooling:DX:TwoSpeed, COIL COOLING DX TWO SPEED 1, Rated High Speed Total Cooling Capacity (gross) [W], 10035.07589
 Component Sizing Information, Coil:Cooling:DX:TwoSpeed, COIL COOLING DX TWO SPEED 1, Rated High Speed Sensible Heat Ratio, 0.79866
 Component Sizing Information, Coil:Cooling:DX:TwoSpeed, COIL COOLING DX TWO SPEED 1, Rated Low Speed Air Flow Rate [m3/s], 0.20205
 Component Sizing Information, Coil:Cooling:DX:TwoSpeed, COIL COOLING DX TWO SPEED 1, Rated Low Speed Total Cooling Capacity (gross) [W], 3344.69079
! <VAV DX Cooling Coil Standard Rating Information>, DX Coil Type, DX Coil Name, Fan Type, Fan Name, Standard Net Cooling Capacity {W}, Standard Net Cooling Capacity {Btu/h}, IEER {Btu/W-h}, COP 100% Capacity {W/W}, COP 75% Capacity {W/W}, COP 50% Capacity {W/W}, COP 25% Capacity {W/W}, EER 100% Capacity {Btu/W-h}, EER 75% Capacity {Btu/W-h}, EER 50% Capacity {Btu/W-h}, EER 25% Capacity {Btu/W-h}, Supply Air Flow 100% {kg/s}, Supply Air Flow 75% {kg/s},Supply Air Flow 50% {kg/s},Supply Air Flow 25% {kg/s}
 VAV DX Cooling Coil Standard Rating Information, Coil:Cooling:DX:TwoSpeed,COIL COOLING DX TWO SPEED 1,N/A,N/A,9583.28,32699.51,22.15,4.21,5.44,7.51,10.12,14.35,18.55,25.64,34.52,0.6898,0.5309,0.3526,0.1886,
 Component Sizing Information, Coil:Heating:Water, COIL HEATING WATER 1, Maximum Water Flow Rate [m3/s], 2.57288E-004
 Component Sizing Information, Coil:Heating:Water, COIL HEATING WATER 1, Design Coil Load [W], 11843.06477
 Component Sizing Information, Coil:Heating:Water, COIL HEATING WATER 1, U-Factor Times Area Value [W/K], 135.05847
Water Heating Coil Capacity Information,Coil:Heating:Water,COIL HEATING WATER 1,7454.97
 Component Sizing Information, Fan:VariableVolume, FAN VARIABLE VOLUME 1, Maximum Flow Rate [m3/s], 0.60622
 Component Sizing Information, Controller:WaterCoil, CONTROLLER WATER COIL 1, Maximum Actuated Flow [m3/s], 2.57288E-004
 Component Sizing Information, Controller:WaterCoil, CONTROLLER WATER COIL 1, Controller Convergence Tolerance, 1.00000E-003
 Component Sizing Information, Boiler:HotWater, BOILER HOT WATER 1, Nominal Capacity [W], 32225.98727
 Component Sizing Information, Boiler:HotWater, BOILER HOT WATER 1, Design Water Flow Rate [m3/s], 6.97404E-004
 Component Sizing Information, PlantLoop, PLANT LOOP 1, Maximum Loop Flow Rate [m3/s], 6.97404E-004
 Component Sizing Information, PlantLoop, PLANT LOOP 1, Plant Loop Volume [m3], 0.78458
 Component Sizing Information, Pump:VariableSpeed, PUMP VARIABLE SPEED 1, Rated Flow Rate [m3/s], 6.97404E-004
 Component Sizing Information, Pump:VariableSpeed, PUMP VARIABLE SPEED 1, Rated Power Consumption [W], 178.17780
! <Environment>,Environment Name,Environment Type, Start Date, End Date, Start DayOfWeek, Duration {#days}, Source:Start DayOfWeek,  Use Daylight Saving, Use Holidays, Apply Weekend Holiday Rule,  Use Rain Values, Use Snow Values
! <Environment:Special Days>, Special Day Name, Special Day Type, Source, Start Date, Duration {#days}
! <Environment:Daylight Saving>, Daylight Saving Indicator, Source, Start Date, End Date
! <Environment:WarmupDays>, NumberofWarmupDays
Environment,FAIRBANKS/INT'L AIRPOR ANN CLG 2% CONDNS ENTH=>MDB,SizingPeriod:DesignDay,07/21,07/21,SummerDesignDay,1,N/A,N/A,N/A,N/A,N/A,N/A
Environment:Daylight Saving,No,SizingPeriod:DesignDay
! <Environment:Design Day Data>, Max Dry-Bulb Temp {C}, Temp Range {dC}, Temp Range Ind Type, Hum Ind Value at Max Temp, Hum Ind Type,Pressure {Pa}, Wind Direction {deg CW from N}, Wind Speed {m/s}, Clearness, Rain, Snow
! <Environment:Design_Day_Misc>,DayOfYear,ASHRAE A Coeff,ASHRAE B Coeff,ASHRAE C Coeff,Solar Constant-Annual Variation,Eq of Time {minutes}, Solar Declination Angle {deg}, Solar Model
Environment:Design Day Data,21.90,10.20,DefaultMultipliers,99678,180,3.1,0.00,No ,No 
Environment:Design_Day_Misc,202,1084.4,0.2082,0.1365,1.0,-6.23,20.6,ASHRAETau
Environment:WarmupDays,  6
! <Tabular Report>,Style
Tabular Report,HTML
! <Warmup Convergence Information>,Zone Name,Environment Type/Name,Average Warmup Temperature Difference {deltaC},Std Dev Warmup Temperature Difference {deltaC},Max Temperature Pass/Fail Convergence,Min Temperature Pass/Fail Convergence,Average Warmup Load Difference {W},Std Dev Warmup Load Difference {W},Heating Load Pass/Fail Convergence,Cooling Load Pass/Fail Convergence
 Warmup Convergence Information,THERMAL ZONE 5,SizingPeriod: FAIRBANKS/INT'L AIRPOR ANN CLG 2% CONDNS ENTH=>MDB,2.6103001150E-003,1.9969399146E-003,Pass,Pass,0.3111634461,1.9953162704,Pass,Pass
 Warmup Convergence Information,THERMAL ZONE 2,SizingPeriod: FAIRBANKS/INT'L AIRPOR ANN CLG 2% CONDNS ENTH=>MDB,4.1699078021E-003,4.9429748858E-003,Pass,Pass,0.1887386328,0.7839296641,Pass,Pass
 Warmup Convergence Information,THERMAL ZONE 3,SizingPeriod: FAIRBANKS/INT'L AIRPOR ANN CLG 2% CONDNS ENTH=>MDB,2.1833577456E-003,1.5374199087E-003,Pass,Pass,0.2177066953,0.6375539002,Pass,Pass
 Warmup Convergence Information,THERMAL ZONE 4,SizingPeriod: FAIRBANKS/INT'L AIRPOR ANN CLG 2% CONDNS ENTH=>MDB,2.2298101116E-003,1.6213054082E-003,Pass,Pass,0.1956431673,0.6447949243,Pass,Pass
 Warmup Convergence Information,THERMAL ZONE 1,SizingPeriod: FAIRBANKS/INT'L AIRPOR ANN CLG 2% CONDNS ENTH=>MDB,2.3233156483E-003,1.6546715347E-003,Pass,Pass,0.1328595644,0.2640887215,Pass,Pass
Environment,FAIRBANKS/INT'L AIRPOR ANN HUM_N 99% CONDNS DP=>MCDB,SizingPeriod:DesignDay,01/21,01/21,WinterDesignDay,1,N/A,N/A,N/A,N/A,N/A,N/A
Environment:Daylight Saving,No,SizingPeriod:DesignDay
Environment:Design Day Data,-33.40,0.00,DefaultMultipliers,99678,20,0.3,0.00,No ,No 
Environment:Design_Day_Misc, 21,1229.0,0.1415,5.7310E-002,1.0,-11.15,-20.1,ASHRAEClearSky
Environment:WarmupDays,  6
 Warmup Convergence Information,THERMAL ZONE 5,SizingPeriod: FAIRBANKS/INT'L AIRPOR ANN HUM_N 99% CONDNS DP=>MCDB,2.0993018559E-002,9.9602000597E-002,Pass,Pass,1.0069600818E-002,5.3898595648E-002,Pass,Pass
 Warmup Convergence Information,THERMAL ZONE 2,SizingPeriod: FAIRBANKS/INT'L AIRPOR ANN HUM_N 99% CONDNS DP=>MCDB,2.1055558193E-002,5.3891670680E-002,Pass,Pass,3.5825984619E-003,1.1776703633E-002,Pass,Pass
 Warmup Convergence Information,THERMAL ZONE 3,SizingPeriod: FAIRBANKS/INT'L AIRPOR ANN HUM_N 99% CONDNS DP=>MCDB,2.0993018559E-002,9.9602000596E-002,Pass,Pass,1.0069600818E-002,5.3898595648E-002,Pass,Pass
 Warmup Convergence Information,THERMAL ZONE 4,SizingPeriod: FAIRBANKS/INT'L AIRPOR ANN HUM_N 99% CONDNS DP=>MCDB,2.0816159938E-002,9.9107025078E-002,Pass,Pass,9.9972631511E-003,5.4299308712E-002,Pass,Pass
 Warmup Convergence Information,THERMAL ZONE 1,SizingPeriod: FAIRBANKS/INT'L AIRPOR ANN HUM_N 99% CONDNS DP=>MCDB,2.0816159938E-002,9.9107025078E-002,Pass,Pass,9.9972631512E-003,5.4299308712E-002,Pass,Pass
Environment,FAIRBANKS/INT'L AIRPOR ANN HTG 99% CONDNS DB,SizingPeriod:DesignDay,01/21,01/21,WinterDesignDay,1,N/A,N/A,N/A,N/A,N/A,N/A
Environment:Daylight Saving,No,SizingPeriod:DesignDay
Environment:Design Day Data,-38.90,0.00,DefaultMultipliers,99678,20,0.3,0.00,No ,No 
Environment:Design_Day_Misc, 21,1229.0,0.1415,5.7310E-002,1.0,-11.15,-20.1,ASHRAEClearSky
Environment:WarmupDays,  6
 Warmup Convergence Information,THERMAL ZONE 5,SizingPeriod: FAIRBANKS/INT'L AIRPOR ANN HTG 99% CONDNS DB,3.8854789084E-002,0.1819758048,Pass,Pass,9.7945403641E-003,4.5336598884E-002,Pass,Pass
 Warmup Convergence Information,THERMAL ZONE 2,SizingPeriod: FAIRBANKS/INT'L AIRPOR ANN HTG 99% CONDNS DB,3.4372986850E-002,6.7743618701E-002,Pass,Pass,3.6537517639E-003,8.5442921086E-003,Pass,Pass
 Warmup Convergence Information,THERMAL ZONE 3,SizingPeriod: FAIRBANKS/INT'L AIRPOR ANN HTG 99% CONDNS DB,3.8854789084E-002,0.1819758048,Pass,Pass,9.7945403641E-003,4.5336598884E-002,Pass,Pass
 Warmup Convergence Information,THERMAL ZONE 4,SizingPeriod: FAIRBANKS/INT'L AIRPOR ANN HTG 99% CONDNS DB,3.8938329174E-002,0.1822070794,Pass,Pass,9.8186241701E-003,4.5216504956E-002,Pass,Pass
 Warmup Convergence Information,THERMAL ZONE 1,SizingPeriod: FAIRBANKS/INT'L AIRPOR ANN HTG 99% CONDNS DB,3.8938329174E-002,0.1822070794,Pass,Pass,9.8186241701E-003,4.5216504956E-002,Pass,Pass
Environment,FAIRBANKS/INT'L AIRPOR ANN HUM_N 99.6% CONDNS DP=>MCDB,SizingPeriod:DesignDay,01/21,01/21,WinterDesignDay,1,N/A,N/A,N/A,N/A,N/A,N/A
Environment:Daylight Saving,No,SizingPeriod:DesignDay
Environment:Design Day Data,-35.60,0.00,DefaultMultipliers,99678,20,0.3,0.00,No ,No 
Environment:Design_Day_Misc, 21,1229.0,0.1415,5.7310E-002,1.0,-11.15,-20.1,ASHRAEClearSky
Environment:WarmupDays,  6
 Warmup Convergence Information,THERMAL ZONE 5,SizingPeriod: FAIRBANKS/INT'L AIRPOR ANN HUM_N 99.6% CONDNS DP=>MCDB,2.8027652568E-002,0.1338950888,Pass,Pass,9.9209634662E-003,4.9725527527E-002,Pass,Pass
 Warmup Convergence Information,THERMAL ZONE 2,SizingPeriod: FAIRBANKS/INT'L AIRPOR ANN HUM_N 99.6% CONDNS DP=>MCDB,2.6558966974E-002,5.8762047660E-002,Pass,Pass,3.6285456522E-003,1.0303867344E-002,Pass,Pass
 Warmup Convergence Information,THERMAL ZONE 3,SizingPeriod: FAIRBANKS/INT'L AIRPOR ANN HUM_N 99.6% CONDNS DP=>MCDB,2.8027652568E-002,0.1338950888,Pass,Pass,9.9209634662E-003,4.9725527527E-002,Pass,Pass
 Warmup Convergence Information,THERMAL ZONE 4,SizingPeriod: FAIRBANKS/INT'L AIRPOR ANN HUM_N 99.6% CONDNS DP=>MCDB,2.8107544794E-002,0.1337528119,Pass,Pass,9.9166709424E-003,4.9716225687E-002,Pass,Pass
 Warmup Convergence Information,THERMAL ZONE 1,SizingPeriod: FAIRBANKS/INT'L AIRPOR ANN HUM_N 99.6% CONDNS DP=>MCDB,2.8107544794E-002,0.1337528119,Pass,Pass,9.9166709424E-003,4.9716225687E-002,Pass,Pass
Environment,FAIRBANKS/INT'L AIRPOR ANN CLG 2% CONDNS DB=>MWB,SizingPeriod:DesignDay,07/21,07/21,SummerDesignDay,1,N/A,N/A,N/A,N/A,N/A,N/A
Environment:Daylight Saving,No,SizingPeriod:DesignDay
Environment:Design Day Data,23.70,10.20,DefaultMultipliers,99678,180,3.1,0.00,No ,No 
Environment:Design_Day_Misc,202,1084.4,0.2082,0.1365,1.0,-6.23,20.6,ASHRAETau
Environment:WarmupDays,  6
 Warmup Convergence Information,THERMAL ZONE 5,SizingPeriod: FAIRBANKS/INT'L AIRPOR ANN CLG 2% CONDNS DB=>MWB,2.3457703261E-003,1.6647541069E-003,Pass,Pass,0.1920626206,0.4980092633,Pass,Pass
 Warmup Convergence Information,THERMAL ZONE 2,SizingPeriod: FAIRBANKS/INT'L AIRPOR ANN CLG 2% CONDNS DB=>MWB,5.4662321494E-003,9.1627872330E-003,Pass,Pass,5.2279447437E-002,8.6076685832E-002,Pass,Pass
 Warmup Convergence Information,THERMAL ZONE 3,SizingPeriod: FAIRBANKS/INT'L AIRPOR ANN CLG 2% CONDNS DB=>MWB,1.8733225164E-003,1.2687384565E-003,Pass,Pass,0.2088206327,0.5912837405,Pass,Pass
 Warmup Convergence Information,THERMAL ZONE 4,SizingPeriod: FAIRBANKS/INT'L AIRPOR ANN CLG 2% CONDNS DB=>MWB,4.1861297672E-003,7.1893232383E-003,Pass,Pass,0.1415000174,0.3774786546,Pass,Pass
 Warmup Convergence Information,THERMAL ZONE 1,SizingPeriod: FAIRBANKS/INT'L AIRPOR ANN CLG 2% CONDNS DB=>MWB,4.8031492084E-003,8.9702563724E-003,Pass,Pass,0.1367570034,0.4011634508,Pass,Pass
Environment,FAIRBANKS/INT'L AIRPOR ANN HTG WIND 99.6% CONDNS WS=>MCDB,SizingPeriod:DesignDay,01/21,01/21,WinterDesignDay,1,N/A,N/A,N/A,N/A,N/A,N/A
Environment:Daylight Saving,No,SizingPeriod:DesignDay
Environment:Design Day Data,-15.60,0.00,DefaultMultipliers,99678,20,8.9,0.00,No ,No 
Environment:Design_Day_Misc, 21,1229.0,0.1415,5.7310E-002,1.0,-11.15,-20.1,ASHRAEClearSky
Environment:WarmupDays,  6
 Warmup Convergence Information,THERMAL ZONE 5,SizingPeriod: FAIRBANKS/INT'L AIRPOR ANN HTG WIND 99.6% CONDNS WS=>MCDB,5.0511225031E-004,1.9341737321E-003,Pass,Pass,9.4202484168E-003,6.5393753755E-002,Pass,Pass
 Warmup Convergence Information,THERMAL ZONE 2,SizingPeriod: FAIRBANKS/INT'L AIRPOR ANN HTG WIND 99.6% CONDNS WS=>MCDB,3.1210178829E-003,3.1401066730E-003,Pass,Pass,6.5641001960E-003,2.8635401851E-002,Pass,Pass
 Warmup Convergence Information,THERMAL ZONE 3,SizingPeriod: FAIRBANKS/INT'L AIRPOR ANN HTG WIND 99.6% CONDNS WS=>MCDB,5.0511225026E-004,1.9341737319E-003,Pass,Pass,9.4202484168E-003,6.5393753755E-002,Pass,Pass
 Warmup Convergence Information,THERMAL ZONE 4,SizingPeriod: FAIRBANKS/INT'L AIRPOR ANN HTG WIND 99.6% CONDNS WS=>MCDB,3.9957074924E-004,1.6982565087E-003,Pass,Pass,9.5315261479E-003,6.6427496602E-002,Pass,Pass
 Warmup Convergence Information,THERMAL ZONE 1,SizingPeriod: FAIRBANKS/INT'L AIRPOR ANN HTG WIND 99.6% CONDNS WS=>MCDB,3.9957074934E-004,1.6982565088E-003,Pass,Pass,9.5315261479E-003,6.6427496602E-002,Pass,Pass
Environment,FAIRBANKS/INT'L AIRPOR ANN CLG 1% CONDNS WB=>MDB,SizingPeriod:DesignDay,07/21,07/21,SummerDesignDay,1,N/A,N/A,N/A,N/A,N/A,N/A
Environment:Daylight Saving,No,SizingPeriod:DesignDay
Environment:Design Day Data,23.30,10.20,DefaultMultipliers,99678,180,3.1,0.00,No ,No 
Environment:Design_Day_Misc,202,1084.4,0.2082,0.1365,1.0,-6.23,20.6,ASHRAETau
Environment:WarmupDays,  6
 Warmup Convergence Information,THERMAL ZONE 5,SizingPeriod: FAIRBANKS/INT'L AIRPOR ANN CLG 1% CONDNS WB=>MDB,1.9596801781E-003,1.4898641558E-003,Pass,Pass,0.2062053248,0.5804401125,Pass,Pass
 Warmup Convergence Information,THERMAL ZONE 2,SizingPeriod: FAIRBANKS/INT'L AIRPOR ANN CLG 1% CONDNS WB=>MDB,5.2352697045E-003,7.6686314533E-003,Pass,Pass,5.8492232527E-002,9.5814935818E-002,Pass,Pass
 Warmup Convergence Information,THERMAL ZONE 3,SizingPeriod: FAIRBANKS/INT'L AIRPOR ANN CLG 1% CONDNS WB=>MDB,2.1530944948E-003,1.5686545916E-003,Pass,Pass,0.2063155123,0.5469669609,Pass,Pass
 Warmup Convergence Information,THERMAL ZONE 4,SizingPeriod: FAIRBANKS/INT'L AIRPOR ANN CLG 1% CONDNS WB=>MDB,3.2432708244E-003,5.3781190476E-003,Pass,Pass,0.1523244536,0.4482648198,Pass,Pass
 Warmup Convergence Information,THERMAL ZONE 1,SizingPeriod: FAIRBANKS/INT'L AIRPOR ANN CLG 1% CONDNS WB=>MDB,4.4315137159E-003,6.9999710456E-003,Pass,Pass,0.1381523342,0.4030894771,Pass,Pass
Environment,FAIRBANKS/INT'L AIRPOR ANN CLG 1% CONDNS DP=>MDB,SizingPeriod:DesignDay,07/21,07/21,SummerDesignDay,1,N/A,N/A,N/A,N/A,N/A,N/A
Environment:Daylight Saving,No,SizingPeriod:DesignDay
Environment:Design Day Data,17.80,10.20,DefaultMultipliers,99678,180,3.1,0.00,No ,No 
Environment:Design_Day_Misc,202,1084.4,0.2082,0.1365,1.0,-6.23,20.6,ASHRAETau
Environment:WarmupDays,  6
 Warmup Convergence Information,THERMAL ZONE 5,SizingPeriod: FAIRBANKS/INT'L AIRPOR ANN CLG 1% CONDNS DP=>MDB,2.6384924147E-003,1.8663175376E-003,Pass,Pass,0.2570434626,1.3463547885,Pass,Pass
 Warmup Convergence Information,THERMAL ZONE 2,SizingPeriod: FAIRBANKS/INT'L AIRPOR ANN CLG 1% CONDNS DP=>MDB,1.9030294298E-003,1.3746866551E-003,Pass,Pass,5.7112220895,54.5227298545,Pass,Pass
 Warmup Convergence Information,THERMAL ZONE 3,SizingPeriod: FAIRBANKS/INT'L AIRPOR ANN CLG 1% CONDNS DP=>MDB,2.1500752759E-003,1.6137292555E-003,Pass,Pass,5.9924845547E-002,0.1035958548,Pass,Pass
 Warmup Convergence Information,THERMAL ZONE 4,SizingPeriod: FAIRBANKS/INT'L AIRPOR ANN CLG 1% CONDNS DP=>MDB,2.2563266899E-003,1.7078095202E-003,Pass,Pass,0.4214152269,1.8857686331,Pass,Pass
 Warmup Convergence Information,THERMAL ZONE 1,SizingPeriod: FAIRBANKS/INT'L AIRPOR ANN CLG 1% CONDNS DP=>MDB,2.3043482096E-003,1.6690647362E-003,Pass,Pass,0.3532764905,1.1458543956,Pass,Pass
Environment,FAIRBANKS/INT'L AIRPOR ANN HTG 99.6% CONDNS DB,SizingPeriod:DesignDay,01/21,01/21,WinterDesignDay,1,N/A,N/A,N/A,N/A,N/A,N/A
Environment:Daylight Saving,No,SizingPeriod:DesignDay
Environment:Design Day Data,-41.90,0.00,DefaultMultipliers,99678,20,0.3,0.00,No ,No 
Environment:Design_Day_Misc, 21,1229.0,0.1415,5.7310E-002,1.0,-11.15,-20.1,ASHRAEClearSky
Environment:WarmupDays,  6
 Warmup Convergence Information,THERMAL ZONE 5,SizingPeriod: FAIRBANKS/INT'L AIRPOR ANN HTG 99.6% CONDNS DB,4.8024335144E-002,0.2214948463,Pass,Pass,9.3086796474E-003,4.0401724147E-002,Pass,Pass
 Warmup Convergence Information,THERMAL ZONE 2,SizingPeriod: FAIRBANKS/INT'L AIRPOR ANN HTG 99.6% CONDNS DB,4.0764517123E-002,7.2818487322E-002,Pass,Pass,4.0643817004E-003,8.2363317674E-003,Pass,Pass
 Warmup Convergence Information,THERMAL ZONE 3,SizingPeriod: FAIRBANKS/INT'L AIRPOR ANN HTG 99.6% CONDNS DB,4.8024335144E-002,0.2214948463,Pass,Pass,9.3086796474E-003,4.0401724147E-002,Pass,Pass
 Warmup Convergence Information,THERMAL ZONE 4,SizingPeriod: FAIRBANKS/INT'L AIRPOR ANN HTG 99.6% CONDNS DB,4.7953809048E-002,0.2215148034,Pass,Pass,9.2960934794E-003,4.0691390108E-002,Pass,Pass
 Warmup Convergence Information,THERMAL ZONE 1,SizingPeriod: FAIRBANKS/INT'L AIRPOR ANN HTG 99.6% CONDNS DB,4.7953809048E-002,0.2215148034,Pass,Pass,9.2960934794E-003,4.0691390108E-002,Pass,Pass
Environment,FAIRBANKS/INT'L AIRPOR ANN CLG 2% CONDNS DP=>MDB,SizingPeriod:DesignDay,07/21,07/21,SummerDesignDay,1,N/A,N/A,N/A,N/A,N/A,N/A
Environment:Daylight Saving,No,SizingPeriod:DesignDay
Environment:Design Day Data,17.30,10.20,DefaultMultipliers,99678,180,3.1,0.00,No ,No 
Environment:Design_Day_Misc,202,1084.4,0.2082,0.1365,1.0,-6.23,20.6,ASHRAETau
Environment:WarmupDays,  6
 Warmup Convergence Information,THERMAL ZONE 5,SizingPeriod: FAIRBANKS/INT'L AIRPOR ANN CLG 2% CONDNS DP=>MDB,2.1964450689E-003,1.8392488583E-003,Pass,Pass,0.1321091625,0.5883592372,Pass,Pass
 Warmup Convergence Information,THERMAL ZONE 2,SizingPeriod: FAIRBANKS/INT'L AIRPOR ANN CLG 2% CONDNS DP=>MDB,2.0123190941E-003,1.3342892022E-003,Pass,Pass,0.1978759394,0.7477881176,Pass,Pass
 Warmup Convergence Information,THERMAL ZONE 3,SizingPeriod: FAIRBANKS/INT'L AIRPOR ANN CLG 2% CONDNS DP=>MDB,2.2006273101E-003,1.6820208471E-003,Pass,Pass,5.2286113526E-002,5.9870943985E-002,Pass,Pass
 Warmup Convergence Information,THERMAL ZONE 4,SizingPeriod: FAIRBANKS/INT'L AIRPOR ANN CLG 2% CONDNS DP=>MDB,2.3951067256E-003,1.9036491897E-003,Pass,Pass,0.2334150283,0.8955884277,Pass,Pass
 Warmup Convergence Information,THERMAL ZONE 1,SizingPeriod: FAIRBANKS/INT'L AIRPOR ANN CLG 2% CONDNS DP=>MDB,2.3589503556E-003,1.8475243912E-003,Pass,Pass,0.3442508428,1.0541607658,Pass,Pass
Environment,FAIRBANKS/INT'L AIRPOR ANN CLG .4% CONDNS ENTH=>MDB,SizingPeriod:DesignDay,07/21,07/21,SummerDesignDay,1,N/A,N/A,N/A,N/A,N/A,N/A
Environment:Daylight Saving,No,SizingPeriod:DesignDay
Environment:Design Day Data,24.70,10.20,DefaultMultipliers,99678,180,3.1,0.00,No ,No 
Environment:Design_Day_Misc,202,1084.4,0.2082,0.1365,1.0,-6.23,20.6,ASHRAETau
Environment:WarmupDays,  6
 Warmup Convergence Information,THERMAL ZONE 5,SizingPeriod: FAIRBANKS/INT'L AIRPOR ANN CLG .4% CONDNS ENTH=>MDB,2.5900347813E-003,1.8756324475E-003,Pass,Pass,0.1555386169,0.3733982244,Pass,Pass
 Warmup Convergence Information,THERMAL ZONE 2,SizingPeriod: FAIRBANKS/INT'L AIRPOR ANN CLG .4% CONDNS ENTH=>MDB,7.8960656794E-003,1.8718681176E-002,Pass,Pass,3.9656448459E-002,6.3655226440E-002,Pass,Pass
 Warmup Convergence Information,THERMAL ZONE 3,SizingPeriod: FAIRBANKS/INT'L AIRPOR ANN CLG .4% CONDNS ENTH=>MDB,1.8802147919E-003,1.4657489373E-003,Pass,Pass,0.3109750613,1.6724721755,Pass,Pass
 Warmup Convergence Information,THERMAL ZONE 4,SizingPeriod: FAIRBANKS/INT'L AIRPOR ANN CLG .4% CONDNS ENTH=>MDB,7.1805824824E-003,1.3328536446E-002,Pass,Pass,0.1222052608,0.2642157694,Pass,Pass
 Warmup Convergence Information,THERMAL ZONE 1,SizingPeriod: FAIRBANKS/INT'L AIRPOR ANN CLG .4% CONDNS ENTH=>MDB,7.5960428210E-003,1.5924998789E-002,Pass,Pass,0.1422454285,0.4150192657,Pass,Pass
Environment,FAIRBANKS/INT'L AIRPOR ANN HTG WIND 99% CONDNS WS=>MCDB,SizingPeriod:DesignDay,01/21,01/21,WinterDesignDay,1,N/A,N/A,N/A,N/A,N/A,N/A
Environment:Daylight Saving,No,SizingPeriod:DesignDay
Environment:Design Day Data,-13.90,0.00,DefaultMultipliers,99678,20,7.5,0.00,No ,No 
Environment:Design_Day_Misc, 21,1229.0,0.1415,5.7310E-002,1.0,-11.15,-20.1,ASHRAEClearSky
Environment:WarmupDays,  6
 Warmup Convergence Information,THERMAL ZONE 5,SizingPeriod: FAIRBANKS/INT'L AIRPOR ANN HTG WIND 99% CONDNS WS=>MCDB,2.5505677784E-003,2.7004919157E-003,Pass,Pass,1.0673933957E-002,6.5266475754E-002,Pass,Pass
 Warmup Convergence Information,THERMAL ZONE 2,SizingPeriod: FAIRBANKS/INT'L AIRPOR ANN HTG WIND 99% CONDNS WS=>MCDB,1.8183753157E-004,7.1311384597E-004,Pass,Pass,4.1561307125E-003,2.8305080675E-002,Pass,Pass
 Warmup Convergence Information,THERMAL ZONE 3,SizingPeriod: FAIRBANKS/INT'L AIRPOR ANN HTG WIND 99% CONDNS WS=>MCDB,2.5505677784E-003,2.7004919157E-003,Pass,Pass,1.0673933957E-002,6.5266475754E-002,Pass,Pass
 Warmup Convergence Information,THERMAL ZONE 4,SizingPeriod: FAIRBANKS/INT'L AIRPOR ANN HTG WIND 99% CONDNS WS=>MCDB,1.2139962135E-003,2.2083571504E-003,Pass,Pass,9.8183030629E-003,6.5154376929E-002,Pass,Pass
 Warmup Convergence Information,THERMAL ZONE 1,SizingPeriod: FAIRBANKS/INT'L AIRPOR ANN HTG WIND 99% CONDNS WS=>MCDB,1.2139962134E-003,2.2083571504E-003,Pass,Pass,9.8183030629E-003,6.5154376929E-002,Pass,Pass
Environment,FAIRBANKS/INT'L AIRPOR ANN CLG 1% CONDNS DB=>MWB,SizingPeriod:DesignDay,07/21,07/21,SummerDesignDay,1,N/A,N/A,N/A,N/A,N/A,N/A
Environment:Daylight Saving,No,SizingPeriod:DesignDay
Environment:Design Day Data,25.60,10.20,DefaultMultipliers,99678,180,3.1,0.00,No ,No 
Environment:Design_Day_Misc,202,1084.4,0.2082,0.1365,1.0,-6.23,20.6,ASHRAETau
Environment:WarmupDays,  6
 Warmup Convergence Information,THERMAL ZONE 5,SizingPeriod: FAIRBANKS/INT'L AIRPOR ANN CLG 1% CONDNS DB=>MWB,2.1354757628E-003,1.4854815406E-003,Pass,Pass,0.7624250594,6.1336916705,Pass,Pass
 Warmup Convergence Information,THERMAL ZONE 2,SizingPeriod: FAIRBANKS/INT'L AIRPOR ANN CLG 1% CONDNS DB=>MWB,8.2840452134E-003,1.9846987019E-002,Pass,Pass,3.5781446621E-002,5.8762282434E-002,Pass,Pass
 Warmup Convergence Information,THERMAL ZONE 3,SizingPeriod: FAIRBANKS/INT'L AIRPOR ANN CLG 1% CONDNS DB=>MWB,2.0824795334E-003,1.6030064866E-003,Pass,Pass,0.1482065236,0.3180110803,Pass,Pass
 Warmup Convergence Information,THERMAL ZONE 4,SizingPeriod: FAIRBANKS/INT'L AIRPOR ANN CLG 1% CONDNS DB=>MWB,8.1080055454E-003,1.5907572317E-002,Pass,Pass,0.3647843756,2.4849884893,Pass,Pass
 Warmup Convergence Information,THERMAL ZONE 1,SizingPeriod: FAIRBANKS/INT'L AIRPOR ANN CLG 1% CONDNS DB=>MWB,9.0760186695E-003,1.8000276545E-002,Pass,Pass,0.1533377287,0.4854912198,Pass,Pass
Environment,FAIRBANKS/INT'L AIRPOR ANN CLG 2% CONDNS WB=>MDB,SizingPeriod:DesignDay,07/21,07/21,SummerDesignDay,1,N/A,N/A,N/A,N/A,N/A,N/A
Environment:Daylight Saving,No,SizingPeriod:DesignDay
Environment:Design Day Data,21.90,10.20,DefaultMultipliers,99678,180,3.1,0.00,No ,No 
Environment:Design_Day_Misc,202,1084.4,0.2082,0.1365,1.0,-6.23,20.6,ASHRAETau
Environment:WarmupDays,  6
 Warmup Convergence Information,THERMAL ZONE 5,SizingPeriod: FAIRBANKS/INT'L AIRPOR ANN CLG 2% CONDNS WB=>MDB,2.3573510155E-003,1.5889321344E-003,Pass,Pass,0.1837218944,0.7801685660,Pass,Pass
 Warmup Convergence Information,THERMAL ZONE 2,SizingPeriod: FAIRBANKS/INT'L AIRPOR ANN CLG 2% CONDNS WB=>MDB,3.6442467135E-003,4.3868047456E-003,Pass,Pass,0.1291263628,0.3734763783,Pass,Pass
 Warmup Convergence Information,THERMAL ZONE 3,SizingPeriod: FAIRBANKS/INT'L AIRPOR ANN CLG 2% CONDNS WB=>MDB,2.1555650932E-003,1.4863751861E-003,Pass,Pass,0.2104415598,0.6001193287,Pass,Pass
 Warmup Convergence Information,THERMAL ZONE 4,SizingPeriod: FAIRBANKS/INT'L AIRPOR ANN CLG 2% CONDNS WB=>MDB,2.1769910079E-003,1.5659931954E-003,Pass,Pass,1.4199637851,12.4598746001,Pass,Pass
 Warmup Convergence Information,THERMAL ZONE 1,SizingPeriod: FAIRBANKS/INT'L AIRPOR ANN CLG 2% CONDNS WB=>MDB,2.2732481260E-003,1.8815885764E-003,Pass,Pass,0.1542228216,0.3664297539,Pass,Pass
Environment,FAIRBANKS/INT'L AIRPOR ANN CLG .4% CONDNS DP=>MDB,SizingPeriod:DesignDay,07/21,07/21,SummerDesignDay,1,N/A,N/A,N/A,N/A,N/A,N/A
Environment:Daylight Saving,No,SizingPeriod:DesignDay
Environment:Design Day Data,18.40,10.20,DefaultMultipliers,99678,180,3.1,0.00,No ,No 
Environment:Design_Day_Misc,202,1084.4,0.2082,0.1365,1.0,-6.23,20.6,ASHRAETau
Environment:WarmupDays,  6
 Warmup Convergence Information,THERMAL ZONE 5,SizingPeriod: FAIRBANKS/INT'L AIRPOR ANN CLG .4% CONDNS DP=>MDB,2.2826362003E-003,1.8105666715E-003,Pass,Pass,1.4236401183,13.1504866947,Pass,Pass
 Warmup Convergence Information,THERMAL ZONE 2,SizingPeriod: FAIRBANKS/INT'L AIRPOR ANN CLG .4% CONDNS DP=>MDB,1.9499811103E-003,1.3444492582E-003,Pass,Pass,0.7017888102,5.8282902554,Pass,Pass
 Warmup Convergence Information,THERMAL ZONE 3,SizingPeriod: FAIRBANKS/INT'L AIRPOR ANN CLG .4% CONDNS DP=>MDB,2.4839345661E-003,1.9943235745E-003,Pass,Pass,7.3912573055E-002,0.1920448995,Pass,Pass
 Warmup Convergence Information,THERMAL ZONE 4,SizingPeriod: FAIRBANKS/INT'L AIRPOR ANN CLG .4% CONDNS DP=>MDB,2.0637559264E-003,1.6038198838E-003,Pass,Pass,0.7108227464,4.1157390954,Pass,Pass
 Warmup Convergence Information,THERMAL ZONE 1,SizingPeriod: FAIRBANKS/INT'L AIRPOR ANN CLG .4% CONDNS DP=>MDB,2.0776690602E-003,1.6643344304E-003,Pass,Pass,0.4739859804,1.9899677327,Pass,Pass
Environment,FAIRBANKS/INT'L AIRPOR ANN CLG .4% CONDNS WB=>MDB,SizingPeriod:DesignDay,07/21,07/21,SummerDesignDay,1,N/A,N/A,N/A,N/A,N/A,N/A
Environment:Daylight Saving,No,SizingPeriod:DesignDay
Environment:Design Day Data,24.70,10.20,DefaultMultipliers,99678,180,3.1,0.00,No ,No 
Environment:Design_Day_Misc,202,1084.4,0.2082,0.1365,1.0,-6.23,20.6,ASHRAETau
Environment:WarmupDays,  6
 Warmup Convergence Information,THERMAL ZONE 5,SizingPeriod: FAIRBANKS/INT'L AIRPOR ANN CLG .4% CONDNS WB=>MDB,2.5279997475E-003,1.6615495469E-003,Pass,Pass,0.1836027669,0.5196630716,Pass,Pass
 Warmup Convergence Information,THERMAL ZONE 2,SizingPeriod: FAIRBANKS/INT'L AIRPOR ANN CLG .4% CONDNS WB=>MDB,7.3024149477E-003,1.5923646953E-002,Pass,Pass,4.1666366238E-002,6.6587106952E-002,Pass,Pass
 Warmup Convergence Information,THERMAL ZONE 3,SizingPeriod: FAIRBANKS/INT'L AIRPOR ANN CLG .4% CONDNS WB=>MDB,1.8281827031E-003,1.3473938130E-003,Pass,Pass,0.3007359912,1.3442771409,Pass,Pass
 Warmup Convergence Information,THERMAL ZONE 4,SizingPeriod: FAIRBANKS/INT'L AIRPOR ANN CLG .4% CONDNS WB=>MDB,7.1893524084E-003,1.3022396212E-002,Pass,Pass,0.1457539553,0.4314262373,Pass,Pass
 Warmup Convergence Information,THERMAL ZONE 1,SizingPeriod: FAIRBANKS/INT'L AIRPOR ANN CLG .4% CONDNS WB=>MDB,6.8642064111E-003,1.4131560725E-002,Pass,Pass,0.1699431678,0.6677715502,Pass,Pass
Environment,FAIRBANKS/INT'L AIRPOR ANN CLG .4% CONDNS DB=>MWB,SizingPeriod:DesignDay,07/21,07/21,SummerDesignDay,1,N/A,N/A,N/A,N/A,N/A,N/A
Environment:Daylight Saving,No,SizingPeriod:DesignDay
Environment:Design Day Data,27.40,10.20,DefaultMultipliers,99678,180,3.1,0.00,No ,No 
Environment:Design_Day_Misc,202,1084.4,0.2082,0.1365,1.0,-6.23,20.6,ASHRAETau
Environment:WarmupDays,  6
 Warmup Convergence Information,THERMAL ZONE 5,SizingPeriod: FAIRBANKS/INT'L AIRPOR ANN CLG .4% CONDNS DB=>MWB,2.0917483970E-003,1.5867755370E-003,Pass,Pass,4.3114102767E-002,6.7589745649E-002,Pass,Pass
 Warmup Convergence Information,THERMAL ZONE 2,SizingPeriod: FAIRBANKS/INT'L AIRPOR ANN CLG .4% CONDNS DB=>MWB,1.1117998998E-002,2.0936729113E-002,Pass,Pass,2.7576229847E-002,4.2665112781E-002,Pass,Pass
 Warmup Convergence Information,THERMAL ZONE 3,SizingPeriod: FAIRBANKS/INT'L AIRPOR ANN CLG .4% CONDNS DB=>MWB,1.9381815931E-003,1.4113593831E-003,Pass,Pass,5.7098825379E-002,7.2226968144E-002,Pass,Pass
 Warmup Convergence Information,THERMAL ZONE 4,SizingPeriod: FAIRBANKS/INT'L AIRPOR ANN CLG .4% CONDNS DB=>MWB,1.2495656878E-002,2.4370108803E-002,Pass,Pass,6.6999924562E-002,9.6591486640E-002,Pass,Pass
 Warmup Convergence Information,THERMAL ZONE 1,SizingPeriod: FAIRBANKS/INT'L AIRPOR ANN CLG .4% CONDNS DB=>MWB,1.3224308347E-002,2.5417710247E-002,Pass,Pass,5.5767846546E-002,8.0941925654E-002,Pass,Pass
Environment,FAIRBANKS/INT'L AIRPOR ANN CLG 1% CONDNS ENTH=>MDB,SizingPeriod:DesignDay,07/21,07/21,SummerDesignDay,1,N/A,N/A,N/A,N/A,N/A,N/A
Environment:Daylight Saving,No,SizingPeriod:DesignDay
Environment:Design Day Data,23.00,10.20,DefaultMultipliers,99678,180,3.1,0.00,No ,No 
Environment:Design_Day_Misc,202,1084.4,0.2082,0.1365,1.0,-6.23,20.6,ASHRAETau
Environment:WarmupDays,  6
 Warmup Convergence Information,THERMAL ZONE 5,SizingPeriod: FAIRBANKS/INT'L AIRPOR ANN CLG 1% CONDNS ENTH=>MDB,2.2612970870E-003,1.5694632542E-003,Pass,Pass,0.2742701552,1.3628638415,Pass,Pass
 Warmup Convergence Information,THERMAL ZONE 2,SizingPeriod: FAIRBANKS/INT'L AIRPOR ANN CLG 1% CONDNS ENTH=>MDB,5.3513467623E-003,7.9555556769E-003,Pass,Pass,6.0220811828E-002,0.1026334781,Pass,Pass
 Warmup Convergence Information,THERMAL ZONE 3,SizingPeriod: FAIRBANKS/INT'L AIRPOR ANN CLG 1% CONDNS ENTH=>MDB,2.2764904269E-003,1.6871454148E-003,Pass,Pass,0.1814652753,0.4419905330,Pass,Pass
 Warmup Convergence Information,THERMAL ZONE 4,SizingPeriod: FAIRBANKS/INT'L AIRPOR ANN CLG 1% CONDNS ENTH=>MDB,3.5272349566E-003,5.4930633075E-003,Pass,Pass,0.2569075783,1.3743376647,Pass,Pass
 Warmup Convergence Information,THERMAL ZONE 1,SizingPeriod: FAIRBANKS/INT'L AIRPOR ANN CLG 1% CONDNS ENTH=>MDB,4.2461447258E-003,7.3292828236E-003,Pass,Pass,0.1549362639,0.5537881247,Pass,Pass
Environment,RUN PERIOD 1,WeatherFileRunPeriod,01/01,12/31,Thursday,365,Use RunPeriod Specified Day,Yes,Yes,No ,Yes,Yes
Environment:Daylight Saving,Yes,InputFile,03/08,11/01
Environment:WarmupDays,  6
 Warmup Convergence Information,THERMAL ZONE 5,RunPeriod: RUN PERIOD 1,1.6329138198E-002,5.2123944916E-002,Pass,Pass,1.7836365628E-002,7.4940388464E-002,Pass,Pass
 Warmup Convergence Information,THERMAL ZONE 2,RunPeriod: RUN PERIOD 1,1.1232236808E-002,4.0303764129E-002,Pass,Pass,1.4774277989E-002,4.2784914943E-002,Pass,Pass
 Warmup Convergence Information,THERMAL ZONE 3,RunPeriod: RUN PERIOD 1,1.6327400293E-002,5.2165826701E-002,Pass,Pass,1.7710398461E-002,7.4934734318E-002,Pass,Pass
 Warmup Convergence Information,THERMAL ZONE 4,RunPeriod: RUN PERIOD 1,1.6649338150E-002,5.2082056273E-002,Pass,Pass,1.7971511883E-002,7.4999058145E-002,Pass,Pass
 Warmup Convergence Information,THERMAL ZONE 1,RunPeriod: RUN PERIOD 1,1.6164395959E-002,5.1957741197E-002,Pass,Pass,1.7882908495E-002,7.4960691066E-002,Pass,Pass
! <Program Control Information:Threads/Parallel Sims>, Threading Supported,Maximum Number of Threads, Env Set Threads (OMP_NUM_THREADS), EP Env Set Threads (EP_OMP_NUM_THREADS), IDF Set Threads, Number of Threads Used (Interior Radiant Exchange), Number Nominal Surfaces, Number Parallel Sims
Program Control:Threads/Parallel Sims, Yes,1, Not Set, Not Set, 1, 1, 34, N/A
End of Data
