Program Version,EnergyPlus-Linux-OMP-32 7.2.0.006, YMD=2013.06.24 16:09
! <Version>, Version ID
 Version, 7.2
! <Timesteps per Hour>, #TimeSteps, Minutes per TimeStep {minutes}
 Timesteps per Hour,  4, 15
! <System Convergence Limits>, Minimum System TimeStep {minutes}, Max HVAC Iterations,  Minimum Plant Iterations, Maximum Plant Iterations
 System Convergence Limits, 1, 20, 2, 8
! <Simulation Control>, Do Zone Sizing, Do System Sizing, Do Plant Sizing, Do Design Days, Do Weather Simulation
 Simulation Control, Yes, Yes, Yes, Yes, Yes
! <Output Reporting Tolerances>, Tolerance for Time Heating Setpoint Not Met, Tolerance for Time Cooling Setpoint Not Met
 Output Reporting Tolerances, 0.200, 0.200, 
! <Site:GroundTemperature:BuildingSurface>, Months From Jan to Dec {Deg C}
 Site:GroundTemperature:BuildingSurface,  18.00,  18.00,  18.00,  18.00,  18.00,  18.00,  18.00,  18.00,  18.00,  18.00,  18.00,  18.00
! <Site:GroundTemperature:FCfactorMethod>, Months From Jan to Dec {Deg C}
 Site:GroundTemperature:FCfactorMethod,  10.86,  10.57,  11.08,  11.88,  13.97,  15.58,  16.67,  17.00,  16.44,  15.19,  13.51,  11.96
! <Site:GroundTemperature:Shallow>, Months From Jan to Dec {Deg C}
 Site:GroundTemperature:Shallow,  13.00,  13.00,  13.00,  13.00,  13.00,  13.00,  13.00,  13.00,  13.00,  13.00,  13.00,  13.00
! <Site:GroundTemperature:Deep>, Months From Jan to Dec {Deg C}
 Site:GroundTemperature:Deep,  16.00,  16.00,  16.00,  16.00,  16.00,  16.00,  16.00,  16.00,  16.00,  16.00,  16.00,  16.00
! <Site:GroundReflectance>, Months From Jan to Dec {dimensionless}
 Site:GroundReflectance,  0.20,  0.20,  0.20,  0.20,  0.20,  0.20,  0.20,  0.20,  0.20,  0.20,  0.20,  0.20
! <Site:GroundReflectance:SnowModifier>, Normal, Daylighting {dimensionless}
 Site:GroundReflectance:SnowModifier,   1.000,   1.000
! <Site:GroundReflectance:Snow>, Months From Jan to Dec {dimensionless}
 Site:GroundReflectance:Snow,  0.20,  0.20,  0.20,  0.20,  0.20,  0.20,  0.20,  0.20,  0.20,  0.20,  0.20,  0.20
! <Site:GroundReflectance:Snow:Daylighting>, Months From Jan to Dec {dimensionless}
 Site:GroundReflectance:Snow:Daylighting,  0.20,  0.20,  0.20,  0.20,  0.20,  0.20,  0.20,  0.20,  0.20,  0.20,  0.20,  0.20
! <Environment:Weather Station>,Wind Sensor Height Above Ground {m},Wind Speed Profile Exponent {},Wind Speed Profile Boundary Layer Thickness {m},Air Temperature Sensor Height Above Ground {m},Wind Speed Modifier Coefficient [Internal],Temperature Modifier Coefficient [Internal]
Environment:Weather Station,10.000,0.140,270.000,1.500,1.586,9.750E-003
! <Site:Location>, Location Name, Latitude {N+/S- Deg}, Longitude {E+/W- Deg},  Time Zone Number {GMT+/-}, Elevation {m},  Standard Pressure at Elevation {Pa}, Standard RhoAir at Elevation
Site:Location,San Francisco Intl Ap CA USA TMY3 WMO#=724940,37.62,-122.40,-8.00,2.00,101301,1.2040
! <Building Information>, Building Name,North Axis {deg},Terrain,  Loads Convergence Tolerance Value,Temperature Convergence Tolerance Value,  Solar Distribution,Maximum Number of Warmup Days,Minimum Number of Warmup Days
 Building Information,Building 1,0.000,Suburbs,4.00000E-002,0.40000,FullExterior,25,6
! <Inside Convection Algorithm>, Algorithm {Simple | TARP | CeilingDiffuser | AdaptiveConvectionAlgorithm}
Inside Convection Algorithm,TARP
! <Outside Convection Algorithm>, Algorithm {SimpleCombined | TARP | MoWitt | DOE-2 | AdaptiveConvectionAlgorithm}
Outside Convection Algorithm,DOE-2
! <Sky Radiance Distribution>, Value {Anisotropic}
Sky Radiance Distribution,Anisotropic
! <Zone Air Solution Algorithm>, Value {ThirdOrderBackwardDifference | AnalyticalSolution | EulerMethod}
 Zone Air Solution Algorithm, ThirdOrderBackwardDifference
! <Zone Air Contaminant Balance Simulation>, Simulation {Yes/No}, Carbon Dioxide Concentration
 Zone Air Carbon Dioxide Balance Simulation, No,N/A
! <Zone Air Contaminant Balance Simulation>, Simulation {Yes/No}, Generic Contaminant Concentration
 Zone Air Generic Contaminant Balance Simulation, No,N/A
! <Environment:Site Atmospheric Variation>,Wind Speed Profile Exponent {},Wind Speed Profile Boundary Layer Thickness {m},Air Temperature Gradient Coefficient {K/m}
Environment:Site Atmospheric Variation,0.220,370.000,6.500000E-003
! <SurfaceGeometry>,Starting Corner,Vertex Input Direction,Coordinate System,Daylight Reference Point Coordinate System,Rectangular (Simple) Surface Coordinate System
 Surface Geometry,UpperLeftCorner,Counterclockwise,RelativeCoordinateSystem,RelativeCoordinateSystem,RelativeToZoneOrigin
! <Surface Heat Transfer Algorithm>, Value {CTF - ConductionTransferFunction | EMPD - MoisturePenetrationDepthConductionTransferFunction | CondFD - ConductionFiniteDifference | HAMT - CombinedHeatAndMoistureFiniteElement} - Description,Inside Surface Max Temperature Limit{C}, Surface Convection Coefficient Lower Limit {W/m2-K}, Surface Convection Coefficient Upper Limit {W/m2-K}
Surface Heat Transfer Algorithm, CTF - ConductionTransferFunction,200,0.10,1000.0
! <Shading Summary>, Number of Fixed Detached Shades, Number of Building Detached Shades, Number of Attached Shades
 Shading Summary,0,0,0
! <Zone Summary>, Number of Zones, Number of Zone Surfaces, Number of SubSurfaces
 Zone Summary,20,136,16
! <Zone Information>,Zone Name,North Axis {deg},Origin X-Coordinate {m},Origin Y-Coordinate {m},Origin Z-Coordinate {m},Centroid X-Coordinate {m},Centroid Y-Coordinate {m},Centroid Z-Coordinate {m},Type,Zone Multiplier,Zone List Multiplier,Minimum X {m},Maximum X {m},Minimum Y {m},Maximum Y {m},Minimum Z {m},Maximum Z {m},Ceiling Height {m},Volume {m3},Zone Inside Convection Algorithm {Simple-Detailed-CeilingDiffuser-TrombeWall},Zone Outside Convection Algorithm {Simple-Detailed-Tarp-MoWitt-DOE-2-BLAST}, Floor Area {m2},Exterior Gross Wall Area {m2},Exterior Net Wall Area {m2},Exterior Window Area {m2}, Number of Surfaces, Number of SubSurfaces, Number of Shading SubSurfaces,  Part of Total Building Area
 Zone Information, THERMAL ZONE 15,0.0,3.00,3.00,0.00,13.69,13.69,2.00,1,1,1,3.00,24.38,3.00,24.38,0.00,4.00,4.00,1828.68,TARP,DOE-2,457.17,0.00,0.00,0.00,6,0,0,Yes
 Zone Information, THERMAL ZONE 1,0.0,0.00,0.00,0.00,13.69,1.38,2.00,1,1,1,0.00,27.38,0.00,3.00,0.00,4.00,4.00,292.58,TARP,DOE-2,73.14,109.53,75.57,33.95,6,1,0,Yes
 Zone Information, THERMAL ZONE 18,0.0,3.00,24.38,12.00,13.69,26.00,14.00,1,1,1,0.00,27.38,24.38,27.38,12.00,16.00,4.00,292.58,TARP,DOE-2,73.14,109.53,75.57,33.95,6,1,0,Yes
 Zone Information, THERMAL ZONE 9,0.0,3.00,3.00,8.00,13.69,13.69,10.00,1,1,1,3.00,24.38,3.00,24.38,8.00,12.00,4.00,1828.68,TARP,DOE-2,457.17,0.00,0.00,0.00,6,0,0,Yes
 Zone Information, THERMAL ZONE 16,0.0,0.00,0.00,0.00,1.38,13.69,2.00,1,1,1,0.00,3.00,0.00,27.38,0.00,4.00,4.00,292.58,TARP,DOE-2,73.14,109.53,75.57,33.95,6,1,0,Yes
 Zone Information, THERMAL ZONE 13,0.0,3.00,24.38,8.00,13.69,26.00,10.00,1,1,1,0.00,27.38,24.38,27.38,8.00,12.00,4.00,292.58,TARP,DOE-2,73.14,109.53,75.57,33.95,6,1,0,Yes
 Zone Information, THERMAL ZONE 5,0.0,0.00,0.00,8.00,13.69,1.38,10.00,1,1,1,0.00,27.38,0.00,3.00,8.00,12.00,4.00,292.58,TARP,DOE-2,73.14,109.53,75.57,33.95,6,1,0,Yes
 Zone Information, THERMAL ZONE 8,0.0,3.00,24.38,4.00,13.69,26.00,6.00,1,1,1,0.00,27.38,24.38,27.38,4.00,8.00,4.00,292.58,TARP,DOE-2,73.14,109.53,75.57,33.95,6,1,0,Yes
 Zone Information, THERMAL ZONE 3,0.0,0.00,0.00,12.00,13.69,1.38,14.00,1,1,1,0.00,27.38,0.00,3.00,12.00,16.00,4.00,292.58,TARP,DOE-2,73.14,109.53,75.57,33.95,6,1,0,Yes
 Zone Information, THERMAL ZONE 11,0.0,24.38,3.00,12.00,26.00,13.69,14.00,1,1,1,24.38,27.38,0.00,27.38,12.00,16.00,4.00,292.58,TARP,DOE-2,73.14,109.53,75.57,33.95,6,1,0,Yes
 Zone Information, THERMAL ZONE 4,0.0,24.38,3.00,0.00,26.00,13.69,2.00,1,1,1,24.38,27.38,0.00,27.38,0.00,4.00,4.00,292.58,TARP,DOE-2,73.14,109.53,75.57,33.95,6,1,0,Yes
 Zone Information, THERMAL ZONE 7,0.0,3.00,3.00,4.00,13.69,13.69,6.00,1,1,1,3.00,24.38,3.00,24.38,4.00,8.00,4.00,1828.68,TARP,DOE-2,457.17,0.00,0.00,0.00,6,0,0,Yes
 Zone Information, THERMAL ZONE 14,0.0,24.38,3.00,8.00,26.00,13.69,10.00,1,1,1,24.38,27.38,0.00,27.38,8.00,12.00,4.00,292.58,TARP,DOE-2,73.14,109.53,75.57,33.95,6,1,0,Yes
 Zone Information, THERMAL ZONE 12,0.0,0.00,0.00,4.00,13.69,1.38,6.00,1,1,1,0.00,27.38,0.00,3.00,4.00,8.00,4.00,292.58,TARP,DOE-2,73.14,109.53,75.57,33.95,6,1,0,Yes
 Zone Information, THERMAL ZONE 6,0.0,0.00,0.00,4.00,1.38,13.69,6.00,1,1,1,0.00,3.00,0.00,27.38,4.00,8.00,4.00,292.58,TARP,DOE-2,73.14,109.53,75.57,33.95,6,1,0,Yes
 Zone Information, THERMAL ZONE 10,0.0,24.38,3.00,4.00,26.00,13.69,6.00,1,1,1,24.38,27.38,0.00,27.38,4.00,8.00,4.00,292.58,TARP,DOE-2,73.14,109.53,75.57,33.95,6,1,0,Yes
 Zone Information, THERMAL ZONE 17,0.0,0.00,0.00,12.00,1.38,13.69,14.00,1,1,1,0.00,3.00,0.00,27.38,12.00,16.00,4.00,292.58,TARP,DOE-2,73.14,109.53,75.57,33.95,6,1,0,Yes
 Zone Information, THERMAL ZONE 19,0.0,0.00,0.00,8.00,1.38,13.69,10.00,1,1,1,0.00,3.00,0.00,27.38,8.00,12.00,4.00,292.58,TARP,DOE-2,73.14,109.53,75.57,33.95,6,1,0,Yes
 Zone Information, THERMAL ZONE 2,0.0,3.00,3.00,12.00,13.69,13.69,14.00,1,1,1,3.00,24.38,3.00,24.38,12.00,16.00,4.00,1828.68,TARP,DOE-2,457.17,0.00,0.00,0.00,6,0,0,Yes
 Zone Information, THERMAL ZONE 20,0.0,3.00,24.38,0.00,13.69,26.00,2.00,1,1,1,0.00,27.38,24.38,27.38,0.00,4.00,4.00,292.58,TARP,DOE-2,73.14,109.53,75.57,33.95,6,1,0,Yes
! <Zone Internal Gains/Equipment Information - Nominal>,Zone Name, Floor Area {m2},# Occupants,Area per Occupant {m2/person},Occupant per Area {person/m2},Interior Lighting {W/m2},Electric Load {W/m2},Gas Load {W/m2},Other Load {W/m2},Hot Water Eq {W/m2},Steam Equipment {W/m2},Sum Loads per Area {W/m2},Outdoor Controlled Baseboard Heat
 Zone Internal Gains, THERMAL ZONE 15,457.17,0.0,N/A,0.000,0.000,0.000,0.000,0.000,0.000,0.000,0.000,No
 Zone Internal Gains, THERMAL ZONE 1,73.14,0.0,N/A,0.000,0.000,0.000,0.000,0.000,0.000,0.000,0.000,No
 Zone Internal Gains, THERMAL ZONE 18,73.14,0.0,N/A,0.000,0.000,0.000,0.000,0.000,0.000,0.000,0.000,No
 Zone Internal Gains, THERMAL ZONE 9,457.17,0.0,N/A,0.000,0.000,0.000,0.000,0.000,0.000,0.000,0.000,No
 Zone Internal Gains, THERMAL ZONE 16,73.14,0.0,N/A,0.000,0.000,0.000,0.000,0.000,0.000,0.000,0.000,No
 Zone Internal Gains, THERMAL ZONE 13,73.14,0.0,N/A,0.000,0.000,0.000,0.000,0.000,0.000,0.000,0.000,No
 Zone Internal Gains, THERMAL ZONE 5,73.14,0.0,N/A,0.000,0.000,0.000,0.000,0.000,0.000,0.000,0.000,No
 Zone Internal Gains, THERMAL ZONE 8,73.14,0.0,N/A,0.000,0.000,0.000,0.000,0.000,0.000,0.000,0.000,No
 Zone Internal Gains, THERMAL ZONE 3,73.14,0.0,N/A,0.000,0.000,0.000,0.000,0.000,0.000,0.000,0.000,No
 Zone Internal Gains, THERMAL ZONE 11,73.14,0.0,N/A,0.000,0.000,0.000,0.000,0.000,0.000,0.000,0.000,No
 Zone Internal Gains, THERMAL ZONE 4,73.14,0.0,N/A,0.000,0.000,0.000,0.000,0.000,0.000,0.000,0.000,No
 Zone Internal Gains, THERMAL ZONE 7,457.17,0.0,N/A,0.000,0.000,0.000,0.000,0.000,0.000,0.000,0.000,No
 Zone Internal Gains, THERMAL ZONE 14,73.14,0.0,N/A,0.000,0.000,0.000,0.000,0.000,0.000,0.000,0.000,No
 Zone Internal Gains, THERMAL ZONE 12,73.14,0.0,N/A,0.000,0.000,0.000,0.000,0.000,0.000,0.000,0.000,No
 Zone Internal Gains, THERMAL ZONE 6,73.14,0.0,N/A,0.000,0.000,0.000,0.000,0.000,0.000,0.000,0.000,No
 Zone Internal Gains, THERMAL ZONE 10,73.14,0.0,N/A,0.000,0.000,0.000,0.000,0.000,0.000,0.000,0.000,No
 Zone Internal Gains, THERMAL ZONE 17,73.14,0.0,N/A,0.000,0.000,0.000,0.000,0.000,0.000,0.000,0.000,No
 Zone Internal Gains, THERMAL ZONE 19,73.14,0.0,N/A,0.000,0.000,0.000,0.000,0.000,0.000,0.000,0.000,No
 Zone Internal Gains, THERMAL ZONE 2,457.17,0.0,N/A,0.000,0.000,0.000,0.000,0.000,0.000,0.000,0.000,No
 Zone Internal Gains, THERMAL ZONE 20,73.14,0.0,N/A,0.000,0.000,0.000,0.000,0.000,0.000,0.000,0.000,No
! <Shadowing/Sun Position Calculations> [Annual Simulations], Value {days}, Allowable Number Figures in Shadow Overlap {}, Polygon Clipping Algorithm, Sky Diffuse Modeling Algorithm
Shadowing/Sun Position Calculations,20,15000,SutherlandHodgman,SimpleSkyDiffuseModeling
! <RoomAir Model>, Zone Name, Mixing/Mundt/UCSDDV/UCSDCV/UCSDUFI/UCSDUFE/User Defined
RoomAir Model,THERMAL ZONE 15,Mixing/Well-Stirred
RoomAir Model,THERMAL ZONE 1,Mixing/Well-Stirred
RoomAir Model,THERMAL ZONE 18,Mixing/Well-Stirred
RoomAir Model,THERMAL ZONE 9,Mixing/Well-Stirred
RoomAir Model,THERMAL ZONE 16,Mixing/Well-Stirred
RoomAir Model,THERMAL ZONE 13,Mixing/Well-Stirred
RoomAir Model,THERMAL ZONE 5,Mixing/Well-Stirred
RoomAir Model,THERMAL ZONE 8,Mixing/Well-Stirred
RoomAir Model,THERMAL ZONE 3,Mixing/Well-Stirred
RoomAir Model,THERMAL ZONE 11,Mixing/Well-Stirred
RoomAir Model,THERMAL ZONE 4,Mixing/Well-Stirred
RoomAir Model,THERMAL ZONE 7,Mixing/Well-Stirred
RoomAir Model,THERMAL ZONE 14,Mixing/Well-Stirred
RoomAir Model,THERMAL ZONE 12,Mixing/Well-Stirred
RoomAir Model,THERMAL ZONE 6,Mixing/Well-Stirred
RoomAir Model,THERMAL ZONE 10,Mixing/Well-Stirred
RoomAir Model,THERMAL ZONE 17,Mixing/Well-Stirred
RoomAir Model,THERMAL ZONE 19,Mixing/Well-Stirred
RoomAir Model,THERMAL ZONE 2,Mixing/Well-Stirred
RoomAir Model,THERMAL ZONE 20,Mixing/Well-Stirred
! <AirflowNetwork Model:Control>, No Multizone or Distribution/Multizone with Distribution/Multizone without Distribution/Multizone with Distribution only during Fan Operation
AirflowNetwork Model:Control,NoMultizoneOrDistribution
! <Zone Volume Capacitance Multiplier>, Sensible Heat Capacity Multiplier, Moisture Capacity Multiplier, Carbon Dioxide Capacity Multiplier, Generic Contaminant Capacity Multiplier
Zone Volume Capacitance Multiplier,   1.000 ,   1.000,   1.000,   1.000
! <Load Timesteps in Zone Design Calculation Averaging Window>, Value
 Load Timesteps in Zone Design Calculation Averaging Window,    4
! <Heating Sizing Factor Information>, Sizing Factor ID, Value
 Heating Sizing Factor Information, Global,   1.2500    
 Heating Sizing Factor Information, Zone THERMAL ZONE 15,   1.2500    
 Heating Sizing Factor Information, Zone THERMAL ZONE 1,   1.2500    
 Heating Sizing Factor Information, Zone THERMAL ZONE 18,   1.2500    
 Heating Sizing Factor Information, Zone THERMAL ZONE 9,   1.2500    
 Heating Sizing Factor Information, Zone THERMAL ZONE 16,   1.2500    
 Heating Sizing Factor Information, Zone THERMAL ZONE 13,   1.2500    
 Heating Sizing Factor Information, Zone THERMAL ZONE 5,   1.2500    
 Heating Sizing Factor Information, Zone THERMAL ZONE 8,   1.2500    
 Heating Sizing Factor Information, Zone THERMAL ZONE 3,   1.2500    
 Heating Sizing Factor Information, Zone THERMAL ZONE 11,   1.2500    
 Heating Sizing Factor Information, Zone THERMAL ZONE 4,   1.2500    
 Heating Sizing Factor Information, Zone THERMAL ZONE 7,   1.2500    
 Heating Sizing Factor Information, Zone THERMAL ZONE 14,   1.2500    
 Heating Sizing Factor Information, Zone THERMAL ZONE 12,   1.2500    
 Heating Sizing Factor Information, Zone THERMAL ZONE 6,   1.2500    
 Heating Sizing Factor Information, Zone THERMAL ZONE 10,   1.2500    
 Heating Sizing Factor Information, Zone THERMAL ZONE 17,   1.2500    
 Heating Sizing Factor Information, Zone THERMAL ZONE 19,   1.2500    
 Heating Sizing Factor Information, Zone THERMAL ZONE 2,   1.2500    
 Heating Sizing Factor Information, Zone THERMAL ZONE 20,   1.2500    
! <Cooling Sizing Factor Information>, Sizing Factor ID, Value
 Cooling Sizing Factor Information, Global,   1.1500    
 Cooling Sizing Factor Information, Zone THERMAL ZONE 15,   1.1500    
 Cooling Sizing Factor Information, Zone THERMAL ZONE 1,   1.1500    
 Cooling Sizing Factor Information, Zone THERMAL ZONE 18,   1.1500    
 Cooling Sizing Factor Information, Zone THERMAL ZONE 9,   1.1500    
 Cooling Sizing Factor Information, Zone THERMAL ZONE 16,   1.1500    
 Cooling Sizing Factor Information, Zone THERMAL ZONE 13,   1.1500    
 Cooling Sizing Factor Information, Zone THERMAL ZONE 5,   1.1500    
 Cooling Sizing Factor Information, Zone THERMAL ZONE 8,   1.1500    
 Cooling Sizing Factor Information, Zone THERMAL ZONE 3,   1.1500    
 Cooling Sizing Factor Information, Zone THERMAL ZONE 11,   1.1500    
 Cooling Sizing Factor Information, Zone THERMAL ZONE 4,   1.1500    
 Cooling Sizing Factor Information, Zone THERMAL ZONE 7,   1.1500    
 Cooling Sizing Factor Information, Zone THERMAL ZONE 14,   1.1500    
 Cooling Sizing Factor Information, Zone THERMAL ZONE 12,   1.1500    
 Cooling Sizing Factor Information, Zone THERMAL ZONE 6,   1.1500    
 Cooling Sizing Factor Information, Zone THERMAL ZONE 10,   1.1500    
 Cooling Sizing Factor Information, Zone THERMAL ZONE 17,   1.1500    
 Cooling Sizing Factor Information, Zone THERMAL ZONE 19,   1.1500    
 Cooling Sizing Factor Information, Zone THERMAL ZONE 2,   1.1500    
 Cooling Sizing Factor Information, Zone THERMAL ZONE 20,   1.1500    
! <Zone Sizing Information>, Zone Name, Load Type, Calc Des Load {W}, User Des Load {W}, Calc Des Air Flow Rate {m3/s}, User Des Air Flow Rate {m3/s}, Design Day Name, Date/Time of Peak, Temperature at Peak {C}, Humidity Ratio at Peak {kgWater/kgDryAir}, Floor Area {m2}, # Occupants, Calc Outdoor Air Flow Rate {m3/s}
 Zone Sizing Information, THERMAL ZONE 15, Heating, 4321.00721, 5401.25901, 0.21996, 0.27496, SAN FRANCISCO INTL AP ANN HTG 99.6% CONDNS DB, 1/21 24:00:00, 3.80000, 4.96421E-003, 457.17124, 0.00000, 0.00000
 Zone Sizing Information, THERMAL ZONE 1, Cooling, 1944.65101, 2236.34866, 0.11303, 0.12999, SAN FRANCISCO INTL AP ANN CLG .4% CONDNS DB=>MWB, 8/21 14:00:00, 28.30000, 7.71372E-003, 73.14469, 0.00000, 0.00000
 Zone Sizing Information, THERMAL ZONE 1, Heating, 2353.08862, 2941.36077, 0.11979, 0.14973, SAN FRANCISCO INTL AP ANN HTG 99.6% CONDNS DB, 1/21 24:00:00, 3.80000, 4.96421E-003, 73.14469, 0.00000, 0.00000
 Zone Sizing Information, THERMAL ZONE 18, Cooling, 693.53457, 797.56475, 4.03118E-002, 4.63586E-002, SAN FRANCISCO INTL AP ANN CLG .4% CONDNS DB=>MWB, 8/21 16:00:00, 27.79000, 7.71372E-003, 73.14469, 0.00000, 0.00000
 Zone Sizing Information, THERMAL ZONE 18, Heating, 2148.11988, 2685.14985, 0.10935, 0.13669, SAN FRANCISCO INTL AP ANN HTG 99.6% CONDNS DB, 1/21 24:00:00, 3.80000, 4.96421E-003, 73.14469, 0.00000, 0.00000
 Zone Sizing Information, THERMAL ZONE 9, Cooling, 450.45660, 518.02509, 2.61828E-002, 3.01102E-002, SAN FRANCISCO INTL AP ANN CLG .4% CONDNS DB=>MWB, 8/21 17:30:00, 26.68500, 7.71373E-003, 457.17124, 0.00000, 0.00000
 Zone Sizing Information, THERMAL ZONE 9, Heating, 1192.71132, 1490.88915, 6.07160E-002, 7.58950E-002, SAN FRANCISCO INTL AP ANN HTG 99.6% CONDNS DB, 1/21 24:00:00, 3.80000, 4.96421E-003, 457.17124, 0.00000, 0.00000
 Zone Sizing Information, THERMAL ZONE 16, Cooling, 3120.96877, 3589.11408, 0.18141, 0.20862, SAN FRANCISCO INTL AP ANN CLG .4% CONDNS DB=>MWB, 8/21 17:15:00, 26.89750, 7.71372E-003, 73.14469, 0.00000, 0.00000
 Zone Sizing Information, THERMAL ZONE 16, Heating, 2355.61714, 2944.52143, 0.11991, 0.14989, SAN FRANCISCO INTL AP ANN HTG 99.6% CONDNS DB, 1/21 24:00:00, 3.80000, 4.96421E-003, 73.14469, 0.00000, 0.00000
 Zone Sizing Information, THERMAL ZONE 13, Cooling, 618.28307, 711.02554, 3.59378E-002, 4.13285E-002, SAN FRANCISCO INTL AP ANN CLG .4% CONDNS DB=>MWB, 8/21 15:45:00, 27.91750, 7.71373E-003, 73.14469, 0.00000, 0.00000
 Zone Sizing Information, THERMAL ZONE 13, Heating, 1842.61941, 2303.27426, 9.38001E-002, 0.11725, SAN FRANCISCO INTL AP ANN HTG 99.6% CONDNS DB, 1/21 24:00:00, 3.80000, 4.96421E-003, 73.14469, 0.00000, 0.00000
 Zone Sizing Information, THERMAL ZONE 5, Cooling, 4090.24899, 4703.78633, 0.23775, 0.27341, SAN FRANCISCO INTL AP ANN CLG .4% CONDNS DB=>MWB, 8/21 14:45:00, 28.30000, 7.71372E-003, 73.14469, 0.00000, 0.00000
 Zone Sizing Information, THERMAL ZONE 5, Heating, 1844.49073, 2305.61341, 9.38954E-002, 0.11737, SAN FRANCISCO INTL AP ANN HTG 99.6% CONDNS DB, 1/21 24:00:00, 3.80000, 4.96421E-003, 73.14469, 0.00000, 0.00000
 Zone Sizing Information, THERMAL ZONE 8, Cooling, 260.58265, 299.67005, 1.51464E-002, 1.74184E-002, SAN FRANCISCO INTL AP ANN CLG .4% CONDNS DB=>MWB, 8/21 16:00:00, 27.79000, 7.71372E-003, 73.14469, 0.00000, 0.00000
 Zone Sizing Information, THERMAL ZONE 8, Heating, 1854.51213, 2318.14017, 9.44055E-002, 0.11801, SAN FRANCISCO INTL AP ANN HTG 99.6% CONDNS DB, 1/21 24:00:00, 3.80000, 4.96421E-003, 73.14469, 0.00000, 0.00000
 Zone Sizing Information, THERMAL ZONE 3, Cooling, 3989.28619, 4587.67912, 0.23188, 0.26666, SAN FRANCISCO INTL AP ANN CLG .4% CONDNS DB=>MWB, 8/21 14:45:00, 28.30000, 7.71372E-003, 73.14469, 0.00000, 0.00000
 Zone Sizing Information, THERMAL ZONE 3, Heating, 2151.07991, 2688.84989, 0.10950, 0.13688, SAN FRANCISCO INTL AP ANN HTG 99.6% CONDNS DB, 1/21 24:00:00, 3.80000, 4.96421E-003, 73.14469, 0.00000, 0.00000
 Zone Sizing Information, THERMAL ZONE 11, Cooling, 4083.99917, 4696.59904, 0.23738, 0.27299, SAN FRANCISCO INTL AP ANN CLG .4% CONDNS DB=>MWB, 8/21 10:45:00, 26.02625, 7.71373E-003, 73.14469, 0.00000, 0.00000
 Zone Sizing Information, THERMAL ZONE 11, Heating, 2151.07991, 2688.84989, 0.10950, 0.13688, SAN FRANCISCO INTL AP ANN HTG 99.6% CONDNS DB, 1/21 24:00:00, 3.80000, 4.96421E-003, 73.14469, 0.00000, 0.00000
 Zone Sizing Information, THERMAL ZONE 4, Cooling, 2201.22670, 2531.41070, 0.12795, 0.14714, SAN FRANCISCO INTL AP ANN CLG .4% CONDNS DB=>MWB, 8/21 10:00:00, 25.07000, 7.71372E-003, 73.14469, 0.00000, 0.00000
 Zone Sizing Information, THERMAL ZONE 4, Heating, 2353.08862, 2941.36077, 0.11979, 0.14973, SAN FRANCISCO INTL AP ANN HTG 99.6% CONDNS DB, 1/21 24:00:00, 3.80000, 4.96421E-003, 73.14469, 0.00000, 0.00000
 Zone Sizing Information, THERMAL ZONE 7, Heating, 1343.83510, 1679.79388, 6.84091E-002, 8.55114E-002, SAN FRANCISCO INTL AP ANN HTG 99.6% CONDNS DB, 1/21 24:00:00, 3.80000, 4.96421E-003, 457.17124, 0.00000, 0.00000
 Zone Sizing Information, THERMAL ZONE 14, Cooling, 4190.14245, 4818.66382, 0.24355, 0.28009, SAN FRANCISCO INTL AP ANN CLG .4% CONDNS DB=>MWB, 8/21 10:45:00, 26.02625, 7.71373E-003, 73.14469, 0.00000, 0.00000
 Zone Sizing Information, THERMAL ZONE 14, Heating, 1844.49073, 2305.61341, 9.38954E-002, 0.11737, SAN FRANCISCO INTL AP ANN HTG 99.6% CONDNS DB, 1/21 24:00:00, 3.80000, 4.96421E-003, 73.14469, 0.00000, 0.00000
 Zone Sizing Information, THERMAL ZONE 12, Cooling, 3719.52645, 4277.45541, 0.21620, 0.24863, SAN FRANCISCO INTL AP ANN CLG .4% CONDNS DB=>MWB, 8/21 14:45:00, 28.30000, 7.71372E-003, 73.14469, 0.00000, 0.00000
 Zone Sizing Information, THERMAL ZONE 12, Heating, 1854.65515, 2318.31894, 9.44128E-002, 0.11802, SAN FRANCISCO INTL AP ANN HTG 99.6% CONDNS DB, 1/21 24:00:00, 3.80000, 4.96421E-003, 73.14469, 0.00000, 0.00000
 Zone Sizing Information, THERMAL ZONE 6, Cooling, 4738.05441, 5448.76258, 0.27540, 0.31671, SAN FRANCISCO INTL AP ANN CLG .4% CONDNS DB=>MWB, 8/21 17:45:00, 26.47250, 7.71372E-003, 73.14469, 0.00000, 0.00000
 Zone Sizing Information, THERMAL ZONE 6, Heating, 1854.51213, 2318.14017, 9.44055E-002, 0.11801, SAN FRANCISCO INTL AP ANN HTG 99.6% CONDNS DB, 1/21 24:00:00, 3.80000, 4.96421E-003, 73.14469, 0.00000, 0.00000
 Zone Sizing Information, THERMAL ZONE 10, Cooling, 3753.67227, 4316.72311, 0.21818, 0.25091, SAN FRANCISCO INTL AP ANN CLG .4% CONDNS DB=>MWB, 8/21 11:00:00, 26.34500, 7.71372E-003, 73.14469, 0.00000, 0.00000
 Zone Sizing Information, THERMAL ZONE 10, Heating, 1854.65515, 2318.31894, 9.44128E-002, 0.11802, SAN FRANCISCO INTL AP ANN HTG 99.6% CONDNS DB, 1/21 24:00:00, 3.80000, 4.96421E-003, 73.14469, 0.00000, 0.00000
 Zone Sizing Information, THERMAL ZONE 17, Cooling, 5083.68562, 5846.23846, 0.29549, 0.33981, SAN FRANCISCO INTL AP ANN CLG .4% CONDNS DB=>MWB, 8/21 17:30:00, 26.68500, 7.71373E-003, 73.14469, 0.00000, 0.00000
 Zone Sizing Information, THERMAL ZONE 17, Heating, 2148.11988, 2685.14985, 0.10935, 0.13669, SAN FRANCISCO INTL AP ANN HTG 99.6% CONDNS DB, 1/21 24:00:00, 3.80000, 4.96421E-003, 73.14469, 0.00000, 0.00000
 Zone Sizing Information, THERMAL ZONE 19, Cooling, 5109.67634, 5876.12779, 0.29700, 0.34155, SAN FRANCISCO INTL AP ANN CLG .4% CONDNS DB=>MWB, 8/21 17:30:00, 26.68500, 7.71373E-003, 73.14469, 0.00000, 0.00000
 Zone Sizing Information, THERMAL ZONE 19, Heating, 1842.61941, 2303.27426, 9.38001E-002, 0.11725, SAN FRANCISCO INTL AP ANN HTG 99.6% CONDNS DB, 1/21 24:00:00, 3.80000, 4.96421E-003, 73.14469, 0.00000, 0.00000
 Zone Sizing Information, THERMAL ZONE 2, Cooling, 978.45559, 1125.22393, 5.68729E-002, 6.54038E-002, SAN FRANCISCO INTL AP ANN CLG .4% CONDNS DB=>MWB, 8/21 19:00:00, 24.98500, 7.71372E-003, 457.17124, 0.00000, 0.00000
 Zone Sizing Information, THERMAL ZONE 2, Heating, 2689.20318, 3361.50397, 0.13690, 0.17112, SAN FRANCISCO INTL AP ANN HTG 99.6% CONDNS DB, 1/21 24:00:00, 3.80000, 4.96421E-003, 457.17124, 0.00000, 0.00000
 Zone Sizing Information, THERMAL ZONE 20, Heating, 2355.61714, 2944.52143, 0.11991, 0.14989, SAN FRANCISCO INTL AP ANN HTG 99.6% CONDNS DB, 1/21 24:00:00, 3.80000, 4.96421E-003, 73.14469, 0.00000, 0.00000
! <System Sizing Information>, System Name, Field Description, Value
 System Sizing Information, AIR LOOP HVAC 1, Calculated Cooling Design Air Flow Rate [m3/s], 3.27712
 System Sizing Information, AIR LOOP HVAC 1, User Cooling Design Air Flow Rate [m3/s], 3.27712
 System Sizing Information, AIR LOOP HVAC 1, Calculated Heating Design Air Flow Rate [m3/s], 2.69516
 System Sizing Information, AIR LOOP HVAC 1, User Heating Design Air Flow Rate [m3/s], 2.69516
! <Component Sizing Information>, Component Type, Component Name, Input Field Description, Value
 Component Sizing Information, AirTerminal:SingleDuct:VAV:Reheat, AIR TERMINAL SINGLE DUCT VAV REHEAT 18, Maximum Air Flow Rate [m3/s], 0.27496
 Component Sizing Information, AirTerminal:SingleDuct:VAV:Reheat, AIR TERMINAL SINGLE DUCT VAV REHEAT 18, Maximum Flow per Zone Floor Area during Reheat [m3/s-m2], 6.01428E-004
 Component Sizing Information, AirTerminal:SingleDuct:VAV:Reheat, AIR TERMINAL SINGLE DUCT VAV REHEAT 18, Maximum Flow Fraction during Reheat [], 1.00000
 Component Sizing Information, AirTerminal:SingleDuct:VAV:Reheat, AIR TERMINAL SINGLE DUCT VAV REHEAT 18, Maximum Reheat Water Flow Rate [m3/s], 2.02868E-004
 Component Sizing Information, AirTerminal:SingleDuct:VAV:Reheat, AIR TERMINAL SINGLE DUCT VAV REHEAT 18, Reheat Coil Sizing Air Volume Flow Rate [m3/s], 0.27496
 Component Sizing Information, Coil:Heating:Water, COIL HEATING WATER 19, Maximum Water Flow Rate [m3/s], 2.02868E-004
 Component Sizing Information, Coil:Heating:Water, COIL HEATING WATER 19, Design Coil Load [W], 9338.08355
 Component Sizing Information, Coil:Heating:Water, COIL HEATING WATER 19, U-Factor Times Area Value [W/K], 195.57196
! <Water Heating Coil Capacity Information>,Component Type,Name,Nominal Total Capacity {W}
Water Heating Coil Capacity Information,Coil:Heating:Water,COIL HEATING WATER 19,8845.67
 Component Sizing Information, AirTerminal:SingleDuct:VAV:Reheat, AIR TERMINAL SINGLE DUCT VAV REHEAT 19, Maximum Air Flow Rate [m3/s], 0.14973
 Component Sizing Information, AirTerminal:SingleDuct:VAV:Reheat, AIR TERMINAL SINGLE DUCT VAV REHEAT 19, Maximum Flow per Zone Floor Area during Reheat [m3/s-m2], 2.03200E-003
 Component Sizing Information, AirTerminal:SingleDuct:VAV:Reheat, AIR TERMINAL SINGLE DUCT VAV REHEAT 19, Maximum Flow Fraction during Reheat [], 0.99264
 Component Sizing Information, AirTerminal:SingleDuct:VAV:Reheat, AIR TERMINAL SINGLE DUCT VAV REHEAT 19, Maximum Reheat Water Flow Rate [m3/s], 1.10476E-004
 Component Sizing Information, AirTerminal:SingleDuct:VAV:Reheat, AIR TERMINAL SINGLE DUCT VAV REHEAT 19, Reheat Coil Sizing Air Volume Flow Rate [m3/s], 0.14973
 Component Sizing Information, Coil:Heating:Water, COIL HEATING WATER 20, Maximum Water Flow Rate [m3/s], 1.10476E-004
 Component Sizing Information, Coil:Heating:Water, COIL HEATING WATER 20, Design Coil Load [W], 5085.23523
 Component Sizing Information, Coil:Heating:Water, COIL HEATING WATER 20, U-Factor Times Area Value [W/K], 106.50252
Water Heating Coil Capacity Information,Coil:Heating:Water,COIL HEATING WATER 20,4817.08
 Component Sizing Information, AirTerminal:SingleDuct:VAV:Reheat, AIR TERMINAL SINGLE DUCT VAV REHEAT 2, Maximum Air Flow Rate [m3/s], 0.13669
 Component Sizing Information, AirTerminal:SingleDuct:VAV:Reheat, AIR TERMINAL SINGLE DUCT VAV REHEAT 2, Maximum Flow per Zone Floor Area during Reheat [m3/s-m2], 1.86876E-003
 Component Sizing Information, AirTerminal:SingleDuct:VAV:Reheat, AIR TERMINAL SINGLE DUCT VAV REHEAT 2, Maximum Flow Fraction during Reheat [], 1.00000
 Component Sizing Information, AirTerminal:SingleDuct:VAV:Reheat, AIR TERMINAL SINGLE DUCT VAV REHEAT 2, Maximum Reheat Water Flow Rate [m3/s], 1.00853E-004
 Component Sizing Information, AirTerminal:SingleDuct:VAV:Reheat, AIR TERMINAL SINGLE DUCT VAV REHEAT 2, Reheat Coil Sizing Air Volume Flow Rate [m3/s], 0.13669
 Component Sizing Information, Coil:Heating:Water, COIL HEATING WATER 3, Maximum Water Flow Rate [m3/s], 1.00853E-004
 Component Sizing Information, Coil:Heating:Water, COIL HEATING WATER 3, Design Coil Load [W], 4642.27944
 Component Sizing Information, Coil:Heating:Water, COIL HEATING WATER 3, U-Factor Times Area Value [W/K], 97.22548
Water Heating Coil Capacity Information,Coil:Heating:Water,COIL HEATING WATER 3,4397.48
 Component Sizing Information, AirTerminal:SingleDuct:VAV:Reheat, AIR TERMINAL SINGLE DUCT VAV REHEAT 8, Maximum Air Flow Rate [m3/s], 7.58950E-002
 Component Sizing Information, AirTerminal:SingleDuct:VAV:Reheat, AIR TERMINAL SINGLE DUCT VAV REHEAT 8, Maximum Flow per Zone Floor Area during Reheat [m3/s-m2], 1.66010E-004
 Component Sizing Information, AirTerminal:SingleDuct:VAV:Reheat, AIR TERMINAL SINGLE DUCT VAV REHEAT 8, Maximum Flow Fraction during Reheat [], 1.00000
 Component Sizing Information, AirTerminal:SingleDuct:VAV:Reheat, AIR TERMINAL SINGLE DUCT VAV REHEAT 8, Maximum Reheat Water Flow Rate [m3/s], 5.59969E-005
 Component Sizing Information, AirTerminal:SingleDuct:VAV:Reheat, AIR TERMINAL SINGLE DUCT VAV REHEAT 8, Reheat Coil Sizing Air Volume Flow Rate [m3/s], 7.58950E-002
 Component Sizing Information, Coil:Heating:Water, COIL HEATING WATER 9, Maximum Water Flow Rate [m3/s], 5.59969E-005
 Component Sizing Information, Coil:Heating:Water, COIL HEATING WATER 9, Design Coil Load [W], 2577.55597
 Component Sizing Information, Coil:Heating:Water, COIL HEATING WATER 9, U-Factor Times Area Value [W/K], 53.98299
Water Heating Coil Capacity Information,Coil:Heating:Water,COIL HEATING WATER 9,2441.64
 Component Sizing Information, AirTerminal:SingleDuct:VAV:Reheat, AIR TERMINAL SINGLE DUCT VAV REHEAT 16, Maximum Air Flow Rate [m3/s], 0.20862
 Component Sizing Information, AirTerminal:SingleDuct:VAV:Reheat, AIR TERMINAL SINGLE DUCT VAV REHEAT 16, Maximum Flow per Zone Floor Area during Reheat [m3/s-m2], 2.03200E-003
 Component Sizing Information, AirTerminal:SingleDuct:VAV:Reheat, AIR TERMINAL SINGLE DUCT VAV REHEAT 16, Maximum Flow Fraction during Reheat [], 0.71245
 Component Sizing Information, AirTerminal:SingleDuct:VAV:Reheat, AIR TERMINAL SINGLE DUCT VAV REHEAT 16, Maximum Reheat Water Flow Rate [m3/s], 1.10595E-004
 Component Sizing Information, AirTerminal:SingleDuct:VAV:Reheat, AIR TERMINAL SINGLE DUCT VAV REHEAT 16, Reheat Coil Sizing Air Volume Flow Rate [m3/s], 0.14989
 Component Sizing Information, Coil:Heating:Water, COIL HEATING WATER 17, Maximum Water Flow Rate [m3/s], 1.10595E-004
 Component Sizing Information, Coil:Heating:Water, COIL HEATING WATER 17, Design Coil Load [W], 5090.69961
 Component Sizing Information, Coil:Heating:Water, COIL HEATING WATER 17, U-Factor Times Area Value [W/K], 148.38616
Water Heating Coil Capacity Information,Coil:Heating:Water,COIL HEATING WATER 17,5981.45
 Component Sizing Information, AirTerminal:SingleDuct:VAV:Reheat, AIR TERMINAL SINGLE DUCT VAV REHEAT 13, Maximum Air Flow Rate [m3/s], 0.11725
 Component Sizing Information, AirTerminal:SingleDuct:VAV:Reheat, AIR TERMINAL SINGLE DUCT VAV REHEAT 13, Maximum Flow per Zone Floor Area during Reheat [m3/s-m2], 1.60299E-003
 Component Sizing Information, AirTerminal:SingleDuct:VAV:Reheat, AIR TERMINAL SINGLE DUCT VAV REHEAT 13, Maximum Flow Fraction during Reheat [], 1.00000
 Component Sizing Information, AirTerminal:SingleDuct:VAV:Reheat, AIR TERMINAL SINGLE DUCT VAV REHEAT 13, Maximum Reheat Water Flow Rate [m3/s], 8.65097E-005
 Component Sizing Information, AirTerminal:SingleDuct:VAV:Reheat, AIR TERMINAL SINGLE DUCT VAV REHEAT 13, Reheat Coil Sizing Air Volume Flow Rate [m3/s], 0.11725
 Component Sizing Information, Coil:Heating:Water, COIL HEATING WATER 14, Maximum Water Flow Rate [m3/s], 8.65097E-005
 Component Sizing Information, Coil:Heating:Water, COIL HEATING WATER 14, Design Coil Load [W], 3982.06555
 Component Sizing Information, Coil:Heating:Water, COIL HEATING WATER 14, U-Factor Times Area Value [W/K], 83.39831
Water Heating Coil Capacity Information,Coil:Heating:Water,COIL HEATING WATER 14,3772.08
 Component Sizing Information, AirTerminal:SingleDuct:VAV:Reheat, AIR TERMINAL SINGLE DUCT VAV REHEAT 7, Maximum Air Flow Rate [m3/s], 0.27341
 Component Sizing Information, AirTerminal:SingleDuct:VAV:Reheat, AIR TERMINAL SINGLE DUCT VAV REHEAT 7, Maximum Flow per Zone Floor Area during Reheat [m3/s-m2], 2.03200E-003
 Component Sizing Information, AirTerminal:SingleDuct:VAV:Reheat, AIR TERMINAL SINGLE DUCT VAV REHEAT 7, Maximum Flow Fraction during Reheat [], 0.54362
 Component Sizing Information, AirTerminal:SingleDuct:VAV:Reheat, AIR TERMINAL SINGLE DUCT VAV REHEAT 7, Maximum Reheat Water Flow Rate [m3/s], 8.65975E-005
 Component Sizing Information, AirTerminal:SingleDuct:VAV:Reheat, AIR TERMINAL SINGLE DUCT VAV REHEAT 7, Reheat Coil Sizing Air Volume Flow Rate [m3/s], 0.11737
 Component Sizing Information, Coil:Heating:Water, COIL HEATING WATER 8, Maximum Water Flow Rate [m3/s], 8.65975E-005
 Component Sizing Information, Coil:Heating:Water, COIL HEATING WATER 8, Design Coil Load [W], 3986.10964
 Component Sizing Information, Coil:Heating:Water, COIL HEATING WATER 8, U-Factor Times Area Value [W/K], 194.47126
Water Heating Coil Capacity Information,Coil:Heating:Water,COIL HEATING WATER 8,6173.87
 Component Sizing Information, AirTerminal:SingleDuct:VAV:Reheat, AIR TERMINAL SINGLE DUCT VAV REHEAT 9, Maximum Air Flow Rate [m3/s], 0.11801
 Component Sizing Information, AirTerminal:SingleDuct:VAV:Reheat, AIR TERMINAL SINGLE DUCT VAV REHEAT 9, Maximum Flow per Zone Floor Area during Reheat [m3/s-m2], 1.61334E-003
 Component Sizing Information, AirTerminal:SingleDuct:VAV:Reheat, AIR TERMINAL SINGLE DUCT VAV REHEAT 9, Maximum Flow Fraction during Reheat [], 1.00000
 Component Sizing Information, AirTerminal:SingleDuct:VAV:Reheat, AIR TERMINAL SINGLE DUCT VAV REHEAT 9, Maximum Reheat Water Flow Rate [m3/s], 8.70680E-005
 Component Sizing Information, AirTerminal:SingleDuct:VAV:Reheat, AIR TERMINAL SINGLE DUCT VAV REHEAT 9, Reheat Coil Sizing Air Volume Flow Rate [m3/s], 0.11801
 Component Sizing Information, Coil:Heating:Water, COIL HEATING WATER 10, Maximum Water Flow Rate [m3/s], 8.70680E-005
 Component Sizing Information, Coil:Heating:Water, COIL HEATING WATER 10, Design Coil Load [W], 4007.76680
 Component Sizing Information, Coil:Heating:Water, COIL HEATING WATER 10, U-Factor Times Area Value [W/K], 83.93658
Water Heating Coil Capacity Information,Coil:Heating:Water,COIL HEATING WATER 10,3796.43
 Component Sizing Information, AirTerminal:SingleDuct:VAV:Reheat, AIR TERMINAL SINGLE DUCT VAV REHEAT 6, Maximum Air Flow Rate [m3/s], 0.26666
 Component Sizing Information, AirTerminal:SingleDuct:VAV:Reheat, AIR TERMINAL SINGLE DUCT VAV REHEAT 6, Maximum Flow per Zone Floor Area during Reheat [m3/s-m2], 2.03200E-003
 Component Sizing Information, AirTerminal:SingleDuct:VAV:Reheat, AIR TERMINAL SINGLE DUCT VAV REHEAT 6, Maximum Flow Fraction during Reheat [], 0.55738
 Component Sizing Information, AirTerminal:SingleDuct:VAV:Reheat, AIR TERMINAL SINGLE DUCT VAV REHEAT 6, Maximum Reheat Water Flow Rate [m3/s], 1.00992E-004
 Component Sizing Information, AirTerminal:SingleDuct:VAV:Reheat, AIR TERMINAL SINGLE DUCT VAV REHEAT 6, Reheat Coil Sizing Air Volume Flow Rate [m3/s], 0.13688
 Component Sizing Information, Coil:Heating:Water, COIL HEATING WATER 7, Maximum Water Flow Rate [m3/s], 1.00992E-004
 Component Sizing Information, Coil:Heating:Water, COIL HEATING WATER 7, Design Coil Load [W], 4648.67633
 Component Sizing Information, Coil:Heating:Water, COIL HEATING WATER 7, U-Factor Times Area Value [W/K], 189.67098
Water Heating Coil Capacity Information,Coil:Heating:Water,COIL HEATING WATER 7,6599.76
 Component Sizing Information, AirTerminal:SingleDuct:VAV:Reheat, AIR TERMINAL SINGLE DUCT VAV REHEAT 14, Maximum Air Flow Rate [m3/s], 0.27299
 Component Sizing Information, AirTerminal:SingleDuct:VAV:Reheat, AIR TERMINAL SINGLE DUCT VAV REHEAT 14, Maximum Flow per Zone Floor Area during Reheat [m3/s-m2], 2.03200E-003
 Component Sizing Information, AirTerminal:SingleDuct:VAV:Reheat, AIR TERMINAL SINGLE DUCT VAV REHEAT 14, Maximum Flow Fraction during Reheat [], 0.54445
 Component Sizing Information, AirTerminal:SingleDuct:VAV:Reheat, AIR TERMINAL SINGLE DUCT VAV REHEAT 14, Maximum Reheat Water Flow Rate [m3/s], 1.00992E-004
 Component Sizing Information, AirTerminal:SingleDuct:VAV:Reheat, AIR TERMINAL SINGLE DUCT VAV REHEAT 14, Reheat Coil Sizing Air Volume Flow Rate [m3/s], 0.13688
 Component Sizing Information, Coil:Heating:Water, COIL HEATING WATER 15, Maximum Water Flow Rate [m3/s], 1.00992E-004
 Component Sizing Information, Coil:Heating:Water, COIL HEATING WATER 15, Design Coil Load [W], 4648.67633
 Component Sizing Information, Coil:Heating:Water, COIL HEATING WATER 15, U-Factor Times Area Value [W/K], 194.17412
Water Heating Coil Capacity Information,Coil:Heating:Water,COIL HEATING WATER 15,6679.29
 Component Sizing Information, AirTerminal:SingleDuct:VAV:Reheat, AIR TERMINAL SINGLE DUCT VAV REHEAT 21, Maximum Air Flow Rate [m3/s], 0.14973
 Component Sizing Information, AirTerminal:SingleDuct:VAV:Reheat, AIR TERMINAL SINGLE DUCT VAV REHEAT 21, Maximum Flow per Zone Floor Area during Reheat [m3/s-m2], 2.03200E-003
 Component Sizing Information, AirTerminal:SingleDuct:VAV:Reheat, AIR TERMINAL SINGLE DUCT VAV REHEAT 21, Maximum Flow Fraction during Reheat [], 0.99264
 Component Sizing Information, AirTerminal:SingleDuct:VAV:Reheat, AIR TERMINAL SINGLE DUCT VAV REHEAT 21, Maximum Reheat Water Flow Rate [m3/s], 1.10476E-004
 Component Sizing Information, AirTerminal:SingleDuct:VAV:Reheat, AIR TERMINAL SINGLE DUCT VAV REHEAT 21, Reheat Coil Sizing Air Volume Flow Rate [m3/s], 0.14973
 Component Sizing Information, Coil:Heating:Water, COIL HEATING WATER 22, Maximum Water Flow Rate [m3/s], 1.10476E-004
 Component Sizing Information, Coil:Heating:Water, COIL HEATING WATER 22, Design Coil Load [W], 5085.23523
 Component Sizing Information, Coil:Heating:Water, COIL HEATING WATER 22, U-Factor Times Area Value [W/K], 106.50252
Water Heating Coil Capacity Information,Coil:Heating:Water,COIL HEATING WATER 22,4817.08
 Component Sizing Information, AirTerminal:SingleDuct:VAV:Reheat, AIR TERMINAL SINGLE DUCT VAV REHEAT 5, Maximum Air Flow Rate [m3/s], 8.55114E-002
 Component Sizing Information, AirTerminal:SingleDuct:VAV:Reheat, AIR TERMINAL SINGLE DUCT VAV REHEAT 5, Maximum Flow per Zone Floor Area during Reheat [m3/s-m2], 1.87044E-004
 Component Sizing Information, AirTerminal:SingleDuct:VAV:Reheat, AIR TERMINAL SINGLE DUCT VAV REHEAT 5, Maximum Flow Fraction during Reheat [], 1.00000
 Component Sizing Information, AirTerminal:SingleDuct:VAV:Reheat, AIR TERMINAL SINGLE DUCT VAV REHEAT 5, Maximum Reheat Water Flow Rate [m3/s], 6.30921E-005
 Component Sizing Information, AirTerminal:SingleDuct:VAV:Reheat, AIR TERMINAL SINGLE DUCT VAV REHEAT 5, Reheat Coil Sizing Air Volume Flow Rate [m3/s], 8.55114E-002
 Component Sizing Information, Coil:Heating:Water, COIL HEATING WATER 6, Maximum Water Flow Rate [m3/s], 6.30921E-005
 Component Sizing Information, Coil:Heating:Water, COIL HEATING WATER 6, Design Coil Load [W], 2904.14800
 Component Sizing Information, Coil:Heating:Water, COIL HEATING WATER 6, U-Factor Times Area Value [W/K], 60.82296
Water Heating Coil Capacity Information,Coil:Heating:Water,COIL HEATING WATER 6,2751.01
 Component Sizing Information, AirTerminal:SingleDuct:VAV:Reheat, AIR TERMINAL SINGLE DUCT VAV REHEAT 17, Maximum Air Flow Rate [m3/s], 0.28009
 Component Sizing Information, AirTerminal:SingleDuct:VAV:Reheat, AIR TERMINAL SINGLE DUCT VAV REHEAT 17, Maximum Flow per Zone Floor Area during Reheat [m3/s-m2], 2.03200E-003
 Component Sizing Information, AirTerminal:SingleDuct:VAV:Reheat, AIR TERMINAL SINGLE DUCT VAV REHEAT 17, Maximum Flow Fraction during Reheat [], 0.53066
 Component Sizing Information, AirTerminal:SingleDuct:VAV:Reheat, AIR TERMINAL SINGLE DUCT VAV REHEAT 17, Maximum Reheat Water Flow Rate [m3/s], 8.65975E-005
 Component Sizing Information, AirTerminal:SingleDuct:VAV:Reheat, AIR TERMINAL SINGLE DUCT VAV REHEAT 17, Reheat Coil Sizing Air Volume Flow Rate [m3/s], 0.11737
 Component Sizing Information, Coil:Heating:Water, COIL HEATING WATER 18, Maximum Water Flow Rate [m3/s], 8.65975E-005
 Component Sizing Information, Coil:Heating:Water, COIL HEATING WATER 18, Design Coil Load [W], 3986.10964
 Component Sizing Information, Coil:Heating:Water, COIL HEATING WATER 18, U-Factor Times Area Value [W/K], 199.22071
Water Heating Coil Capacity Information,Coil:Heating:Water,COIL HEATING WATER 18,6242.18
 Component Sizing Information, AirTerminal:SingleDuct:VAV:Reheat, AIR TERMINAL SINGLE DUCT VAV REHEAT 11, Maximum Air Flow Rate [m3/s], 0.24863
 Component Sizing Information, AirTerminal:SingleDuct:VAV:Reheat, AIR TERMINAL SINGLE DUCT VAV REHEAT 11, Maximum Flow per Zone Floor Area during Reheat [m3/s-m2], 2.03200E-003
 Component Sizing Information, AirTerminal:SingleDuct:VAV:Reheat, AIR TERMINAL SINGLE DUCT VAV REHEAT 11, Maximum Flow Fraction during Reheat [], 0.59780
 Component Sizing Information, AirTerminal:SingleDuct:VAV:Reheat, AIR TERMINAL SINGLE DUCT VAV REHEAT 11, Maximum Reheat Water Flow Rate [m3/s], 8.70747E-005
 Component Sizing Information, AirTerminal:SingleDuct:VAV:Reheat, AIR TERMINAL SINGLE DUCT VAV REHEAT 11, Reheat Coil Sizing Air Volume Flow Rate [m3/s], 0.11802
 Component Sizing Information, Coil:Heating:Water, COIL HEATING WATER 12, Maximum Water Flow Rate [m3/s], 8.70747E-005
 Component Sizing Information, Coil:Heating:Water, COIL HEATING WATER 12, Design Coil Load [W], 4008.07588
 Component Sizing Information, Coil:Heating:Water, COIL HEATING WATER 12, U-Factor Times Area Value [W/K], 176.84523
Water Heating Coil Capacity Information,Coil:Heating:Water,COIL HEATING WATER 12,5918.40
 Component Sizing Information, AirTerminal:SingleDuct:VAV:Reheat, AIR TERMINAL SINGLE DUCT VAV REHEAT 20, Maximum Air Flow Rate [m3/s], 0.31671
 Component Sizing Information, AirTerminal:SingleDuct:VAV:Reheat, AIR TERMINAL SINGLE DUCT VAV REHEAT 20, Maximum Flow per Zone Floor Area during Reheat [m3/s-m2], 2.03200E-003
 Component Sizing Information, AirTerminal:SingleDuct:VAV:Reheat, AIR TERMINAL SINGLE DUCT VAV REHEAT 20, Maximum Flow Fraction during Reheat [], 0.46929
 Component Sizing Information, AirTerminal:SingleDuct:VAV:Reheat, AIR TERMINAL SINGLE DUCT VAV REHEAT 20, Maximum Reheat Water Flow Rate [m3/s], 8.70680E-005
 Component Sizing Information, AirTerminal:SingleDuct:VAV:Reheat, AIR TERMINAL SINGLE DUCT VAV REHEAT 20, Reheat Coil Sizing Air Volume Flow Rate [m3/s], 0.11801
 Component Sizing Information, Coil:Heating:Water, COIL HEATING WATER 21, Maximum Water Flow Rate [m3/s], 8.70680E-005
 Component Sizing Information, Coil:Heating:Water, COIL HEATING WATER 21, Design Coil Load [W], 4007.76680
 Component Sizing Information, Coil:Heating:Water, COIL HEATING WATER 21, U-Factor Times Area Value [W/K], 225.27123
Water Heating Coil Capacity Information,Coil:Heating:Water,COIL HEATING WATER 21,6604.51
 Component Sizing Information, AirTerminal:SingleDuct:VAV:Reheat, AIR TERMINAL SINGLE DUCT VAV REHEAT 12, Maximum Air Flow Rate [m3/s], 0.25091
 Component Sizing Information, AirTerminal:SingleDuct:VAV:Reheat, AIR TERMINAL SINGLE DUCT VAV REHEAT 12, Maximum Flow per Zone Floor Area during Reheat [m3/s-m2], 2.03200E-003
 Component Sizing Information, AirTerminal:SingleDuct:VAV:Reheat, AIR TERMINAL SINGLE DUCT VAV REHEAT 12, Maximum Flow Fraction during Reheat [], 0.59236
 Component Sizing Information, AirTerminal:SingleDuct:VAV:Reheat, AIR TERMINAL SINGLE DUCT VAV REHEAT 12, Maximum Reheat Water Flow Rate [m3/s], 8.70747E-005
 Component Sizing Information, AirTerminal:SingleDuct:VAV:Reheat, AIR TERMINAL SINGLE DUCT VAV REHEAT 12, Reheat Coil Sizing Air Volume Flow Rate [m3/s], 0.11802
 Component Sizing Information, Coil:Heating:Water, COIL HEATING WATER 13, Maximum Water Flow Rate [m3/s], 8.70747E-005
 Component Sizing Information, Coil:Heating:Water, COIL HEATING WATER 13, Design Coil Load [W], 4008.07588
 Component Sizing Information, Coil:Heating:Water, COIL HEATING WATER 13, U-Factor Times Area Value [W/K], 178.46869
Water Heating Coil Capacity Information,Coil:Heating:Water,COIL HEATING WATER 13,5944.91
 Component Sizing Information, AirTerminal:SingleDuct:VAV:Reheat, AIR TERMINAL SINGLE DUCT VAV REHEAT 4, Maximum Air Flow Rate [m3/s], 0.33981
 Component Sizing Information, AirTerminal:SingleDuct:VAV:Reheat, AIR TERMINAL SINGLE DUCT VAV REHEAT 4, Maximum Flow per Zone Floor Area during Reheat [m3/s-m2], 2.03200E-003
 Component Sizing Information, AirTerminal:SingleDuct:VAV:Reheat, AIR TERMINAL SINGLE DUCT VAV REHEAT 4, Maximum Flow Fraction during Reheat [], 0.43739
 Component Sizing Information, AirTerminal:SingleDuct:VAV:Reheat, AIR TERMINAL SINGLE DUCT VAV REHEAT 4, Maximum Reheat Water Flow Rate [m3/s], 1.00853E-004
 Component Sizing Information, AirTerminal:SingleDuct:VAV:Reheat, AIR TERMINAL SINGLE DUCT VAV REHEAT 4, Reheat Coil Sizing Air Volume Flow Rate [m3/s], 0.13669
 Component Sizing Information, Coil:Heating:Water, COIL HEATING WATER 5, Maximum Water Flow Rate [m3/s], 1.00853E-004
 Component Sizing Information, Coil:Heating:Water, COIL HEATING WATER 5, Design Coil Load [W], 4642.27944
 Component Sizing Information, Coil:Heating:Water, COIL HEATING WATER 5, U-Factor Times Area Value [W/K], 241.70430
Water Heating Coil Capacity Information,Coil:Heating:Water,COIL HEATING WATER 5,7403.61
 Component Sizing Information, AirTerminal:SingleDuct:VAV:Reheat, AIR TERMINAL SINGLE DUCT VAV REHEAT 10, Maximum Air Flow Rate [m3/s], 0.34155
 Component Sizing Information, AirTerminal:SingleDuct:VAV:Reheat, AIR TERMINAL SINGLE DUCT VAV REHEAT 10, Maximum Flow per Zone Floor Area during Reheat [m3/s-m2], 2.03200E-003
 Component Sizing Information, AirTerminal:SingleDuct:VAV:Reheat, AIR TERMINAL SINGLE DUCT VAV REHEAT 10, Maximum Flow Fraction during Reheat [], 0.43516
 Component Sizing Information, AirTerminal:SingleDuct:VAV:Reheat, AIR TERMINAL SINGLE DUCT VAV REHEAT 10, Maximum Reheat Water Flow Rate [m3/s], 8.65097E-005
 Component Sizing Information, AirTerminal:SingleDuct:VAV:Reheat, AIR TERMINAL SINGLE DUCT VAV REHEAT 10, Reheat Coil Sizing Air Volume Flow Rate [m3/s], 0.11725
 Component Sizing Information, Coil:Heating:Water, COIL HEATING WATER 11, Maximum Water Flow Rate [m3/s], 8.65097E-005
 Component Sizing Information, Coil:Heating:Water, COIL HEATING WATER 11, Design Coil Load [W], 3982.06555
 Component Sizing Information, Coil:Heating:Water, COIL HEATING WATER 11, U-Factor Times Area Value [W/K], 242.94003
Water Heating Coil Capacity Information,Coil:Heating:Water,COIL HEATING WATER 11,6782.62
 Component Sizing Information, AirTerminal:SingleDuct:VAV:Reheat, AIR TERMINAL SINGLE DUCT VAV REHEAT 15, Maximum Air Flow Rate [m3/s], 0.17112
 Component Sizing Information, AirTerminal:SingleDuct:VAV:Reheat, AIR TERMINAL SINGLE DUCT VAV REHEAT 15, Maximum Flow per Zone Floor Area during Reheat [m3/s-m2], 3.74302E-004
 Component Sizing Information, AirTerminal:SingleDuct:VAV:Reheat, AIR TERMINAL SINGLE DUCT VAV REHEAT 15, Maximum Flow Fraction during Reheat [], 1.00000
 Component Sizing Information, AirTerminal:SingleDuct:VAV:Reheat, AIR TERMINAL SINGLE DUCT VAV REHEAT 15, Maximum Reheat Water Flow Rate [m3/s], 1.26256E-004
 Component Sizing Information, AirTerminal:SingleDuct:VAV:Reheat, AIR TERMINAL SINGLE DUCT VAV REHEAT 15, Reheat Coil Sizing Air Volume Flow Rate [m3/s], 0.17112
 Component Sizing Information, Coil:Heating:Water, COIL HEATING WATER 16, Maximum Water Flow Rate [m3/s], 1.26256E-004
 Component Sizing Information, Coil:Heating:Water, COIL HEATING WATER 16, Design Coil Load [W], 5811.60889
 Component Sizing Information, Coil:Heating:Water, COIL HEATING WATER 16, U-Factor Times Area Value [W/K], 121.71531
Water Heating Coil Capacity Information,Coil:Heating:Water,COIL HEATING WATER 16,5505.15
 Component Sizing Information, AirTerminal:SingleDuct:VAV:Reheat, AIR TERMINAL SINGLE DUCT VAV REHEAT 3, Maximum Air Flow Rate [m3/s], 0.14989
 Component Sizing Information, AirTerminal:SingleDuct:VAV:Reheat, AIR TERMINAL SINGLE DUCT VAV REHEAT 3, Maximum Flow per Zone Floor Area during Reheat [m3/s-m2], 2.03200E-003
 Component Sizing Information, AirTerminal:SingleDuct:VAV:Reheat, AIR TERMINAL SINGLE DUCT VAV REHEAT 3, Maximum Flow Fraction during Reheat [], 0.99157
 Component Sizing Information, AirTerminal:SingleDuct:VAV:Reheat, AIR TERMINAL SINGLE DUCT VAV REHEAT 3, Maximum Reheat Water Flow Rate [m3/s], 1.10595E-004
 Component Sizing Information, AirTerminal:SingleDuct:VAV:Reheat, AIR TERMINAL SINGLE DUCT VAV REHEAT 3, Reheat Coil Sizing Air Volume Flow Rate [m3/s], 0.14989
 Component Sizing Information, Coil:Heating:Water, COIL HEATING WATER 4, Maximum Water Flow Rate [m3/s], 1.10595E-004
 Component Sizing Information, Coil:Heating:Water, COIL HEATING WATER 4, Design Coil Load [W], 5090.69961
 Component Sizing Information, Coil:Heating:Water, COIL HEATING WATER 4, U-Factor Times Area Value [W/K], 106.61696
Water Heating Coil Capacity Information,Coil:Heating:Water,COIL HEATING WATER 4,4822.26
 Component Sizing Information, Branch, BRANCH {ABEE0B65-050C-4C71-9866-ABA12B9150D7}, Maximum Flow Rate [m3/s], 3.27712
 Component Sizing Information, AirLoopHVAC, AIR LOOP HVAC 1, Design Supply Air Flow Rate [m3/s], 3.27712
 Component Sizing Information, Controller:OutdoorAir, CONTROLLER OUTDOOR AIR 1, Maximum Outdoor Air Flow Rate [m3/s], 3.27712
 Component Sizing Information, Controller:OutdoorAir, CONTROLLER OUTDOOR AIR 1, Minimum Outdoor Air Flow Rate [m3/s], 0.00000
 Component Sizing Information, Coil:Cooling:DX:TwoSpeed, COIL COOLING DX TWO SPEED 1, Rated High Speed Air Flow Rate [m3/s], 3.27712
 Component Sizing Information, Coil:Cooling:DX:TwoSpeed, COIL COOLING DX TWO SPEED 1, Rated High Speed Total Cooling Capacity (gross) [W], 54247.93419
 Component Sizing Information, Coil:Cooling:DX:TwoSpeed, COIL COOLING DX TWO SPEED 1, Rated High Speed Sensible Heat Ratio, 0.79866
 Component Sizing Information, Coil:Cooling:DX:TwoSpeed, COIL COOLING DX TWO SPEED 1, Rated Low Speed Air Flow Rate [m3/s], 1.09226
 Component Sizing Information, Coil:Cooling:DX:TwoSpeed, COIL COOLING DX TWO SPEED 1, Rated Low Speed Total Cooling Capacity (gross) [W], 18080.83647
! <VAV DX Cooling Coil Standard Rating Information>, DX Coil Type, DX Coil Name, Fan Type, Fan Name, Standard Net Cooling Capacity {W}, Standard Net Cooling Capacity {Btu/h}, IEER {Btu/W-h}, COP 100% Capacity {W/W}, COP 75% Capacity {W/W}, COP 50% Capacity {W/W}, COP 25% Capacity {W/W}, EER 100% Capacity {Btu/W-h}, EER 75% Capacity {Btu/W-h}, EER 50% Capacity {Btu/W-h}, EER 25% Capacity {Btu/W-h}, Supply Air Flow 100% {kg/s}, Supply Air Flow 75% {kg/s},Supply Air Flow 50% {kg/s},Supply Air Flow 25% {kg/s}
 VAV DX Cooling Coil Standard Rating Information, Coil:Cooling:DX:TwoSpeed,COIL COOLING DX TWO SPEED 1,N/A,N/A,51805.61,176768.07,22.01,4.21,5.41,7.46,10.04,14.35,18.45,25.46,34.24,3.7895,2.9119,1.9336,1.0323,
 Component Sizing Information, Coil:Heating:Water, COIL HEATING WATER 1, Maximum Water Flow Rate [m3/s], 2.32569E-004
 Component Sizing Information, Coil:Heating:Water, COIL HEATING WATER 1, Design Coil Load [W], 10705.22021
 Component Sizing Information, Coil:Heating:Water, COIL HEATING WATER 1, U-Factor Times Area Value [W/K], 162.82973
Water Heating Coil Capacity Information,Coil:Heating:Water,COIL HEATING WATER 1,9571.27
 Component Sizing Information, Fan:VariableVolume, FAN VARIABLE VOLUME 1, Maximum Flow Rate [m3/s], 3.27712
 Component Sizing Information, Controller:WaterCoil, CONTROLLER WATER COIL 1, Maximum Actuated Flow [m3/s], 2.32569E-004
 Component Sizing Information, Controller:WaterCoil, CONTROLLER WATER COIL 1, Controller Convergence Tolerance, 1.00000E-003
 Component Sizing Information, Boiler:HotWater, BOILER HOT WATER 1, Nominal Capacity [W], 102634.19526
 Component Sizing Information, Boiler:HotWater, BOILER HOT WATER 1, Design Water Flow Rate [m3/s], 2.22111E-003
 Component Sizing Information, PlantLoop, PLANT LOOP 1, Maximum Loop Flow Rate [m3/s], 2.22111E-003
 Component Sizing Information, PlantLoop, PLANT LOOP 1, Plant Loop Volume [m3], 2.49875
 Component Sizing Information, Pump:VariableSpeed, PUMP VARIABLE SPEED 1, Rated Flow Rate [m3/s], 2.22111E-003
 Component Sizing Information, Pump:VariableSpeed, PUMP VARIABLE SPEED 1, Rated Power Consumption [W], 567.46549
! <Environment>,Environment Name,Environment Type, Start Date, End Date, Start DayOfWeek, Duration {#days}, Source:Start DayOfWeek,  Use Daylight Saving, Use Holidays, Apply Weekend Holiday Rule,  Use Rain Values, Use Snow Values
! <Environment:Special Days>, Special Day Name, Special Day Type, Source, Start Date, Duration {#days}
! <Environment:Daylight Saving>, Daylight Saving Indicator, Source, Start Date, End Date
! <Environment:WarmupDays>, NumberofWarmupDays
Environment,SAN FRANCISCO INTL AP ANN CLG 2% CONDNS ENTH=>MDB,SizingPeriod:DesignDay,08/21,08/21,SummerDesignDay,1,N/A,N/A,N/A,N/A,N/A,N/A
Environment:Daylight Saving,No,SizingPeriod:DesignDay
! <Environment:Design Day Data>, Max Dry-Bulb Temp {C}, Temp Range {dC}, Temp Range Ind Type, Hum Ind Value at Max Temp, Hum Ind Type,Pressure {Pa}, Wind Direction {deg CW from N}, Wind Speed {m/s}, Clearness, Rain, Snow
! <Environment:Design_Day_Misc>,DayOfYear,ASHRAE A Coeff,ASHRAE B Coeff,ASHRAE C Coeff,Solar Constant-Annual Variation,Eq of Time {minutes}, Solar Declination Angle {deg}, Solar Model
Environment:Design Day Data,22.40,8.50,DefaultMultipliers,101301,310,5.9,0.00,No ,No 
Environment:Design_Day_Misc,233,1106.3,0.2000,0.1216,1.0,-3.33,12.4,ASHRAETau
Environment:WarmupDays,  6
! <Tabular Report>,Style
Tabular Report,HTML
! <Warmup Convergence Information>,Zone Name,Environment Type/Name,Average Warmup Temperature Difference {deltaC},Std Dev Warmup Temperature Difference {deltaC},Max Temperature Pass/Fail Convergence,Min Temperature Pass/Fail Convergence,Average Warmup Load Difference {W},Std Dev Warmup Load Difference {W},Heating Load Pass/Fail Convergence,Cooling Load Pass/Fail Convergence
 Warmup Convergence Information,THERMAL ZONE 15,SizingPeriod: SAN FRANCISCO INTL AP ANN CLG 2% CONDNS ENTH=>MDB,4.4624321903E-003,7.0852786056E-003,Pass,Pass,1.1038283965E-002,9.9835712851E-003,Pass,Pass
 Warmup Convergence Information,THERMAL ZONE 1,SizingPeriod: SAN FRANCISCO INTL AP ANN CLG 2% CONDNS ENTH=>MDB,8.4130780068E-002,0.1459643846,Pass,Pass,0.3335544483,1.6133726219,Pass,Pass
 Warmup Convergence Information,THERMAL ZONE 18,SizingPeriod: SAN FRANCISCO INTL AP ANN CLG 2% CONDNS ENTH=>MDB,1.0052333591E-002,2.4737574140E-002,Pass,Pass,0.1976856303,0.4453766622,Pass,Pass
 Warmup Convergence Information,THERMAL ZONE 9,SizingPeriod: SAN FRANCISCO INTL AP ANN CLG 2% CONDNS ENTH=>MDB,2.2271775258E-002,8.7452757221E-003,Pass,Pass,1.8416940017E-003,6.6892443178E-004,Pass,Pass
 Warmup Convergence Information,THERMAL ZONE 16,SizingPeriod: SAN FRANCISCO INTL AP ANN CLG 2% CONDNS ENTH=>MDB,8.4124090058E-002,0.1985035256,Pass,Pass,0.2436126520,0.9227751846,Pass,Pass
 Warmup Convergence Information,THERMAL ZONE 13,SizingPeriod: SAN FRANCISCO INTL AP ANN CLG 2% CONDNS ENTH=>MDB,1.6053364069E-002,3.2304450510E-002,Pass,Pass,0.1893396844,0.4368284784,Pass,Pass
 Warmup Convergence Information,THERMAL ZONE 5,SizingPeriod: SAN FRANCISCO INTL AP ANN CLG 2% CONDNS ENTH=>MDB,8.3777990434E-002,0.1106378581,Pass,Pass,0.1794929881,0.4403124228,Pass,Pass
 Warmup Convergence Information,THERMAL ZONE 8,SizingPeriod: SAN FRANCISCO INTL AP ANN CLG 2% CONDNS ENTH=>MDB,1.0721569973E-002,2.4944602465E-002,Pass,Pass,0.1929015834,0.4430464924,Pass,Pass
 Warmup Convergence Information,THERMAL ZONE 3,SizingPeriod: SAN FRANCISCO INTL AP ANN CLG 2% CONDNS ENTH=>MDB,8.3745347426E-002,0.1088764759,Pass,Pass,0.2209465743,0.6779268002,Pass,Pass
 Warmup Convergence Information,THERMAL ZONE 11,SizingPeriod: SAN FRANCISCO INTL AP ANN CLG 2% CONDNS ENTH=>MDB,8.3708466575E-002,0.1222659816,Pass,Pass,0.7799397988,6.0799856966,Pass,Pass
 Warmup Convergence Information,THERMAL ZONE 4,SizingPeriod: SAN FRANCISCO INTL AP ANN CLG 2% CONDNS ENTH=>MDB,8.3938863082E-002,0.1664787099,Pass,Pass,0.3136415722,1.3954832010,Pass,Pass
 Warmup Convergence Information,THERMAL ZONE 7,SizingPeriod: SAN FRANCISCO INTL AP ANN CLG 2% CONDNS ENTH=>MDB,1.7208691716E-002,1.4473285099E-002,Pass,Pass,0.1613680598,0.4809198076,Pass,Pass
 Warmup Convergence Information,THERMAL ZONE 14,SizingPeriod: SAN FRANCISCO INTL AP ANN CLG 2% CONDNS ENTH=>MDB,8.3799571305E-002,0.1255831638,Pass,Pass,0.1574758860,0.3805732323,Pass,Pass
 Warmup Convergence Information,THERMAL ZONE 12,SizingPeriod: SAN FRANCISCO INTL AP ANN CLG 2% CONDNS ENTH=>MDB,8.3731254023E-002,0.1132246519,Pass,Pass,0.1736714070,0.4071048951,Pass,Pass
 Warmup Convergence Information,THERMAL ZONE 6,SizingPeriod: SAN FRANCISCO INTL AP ANN CLG 2% CONDNS ENTH=>MDB,8.3913141047E-002,0.1341098146,Pass,Pass,0.2111346167,0.4523249000,Pass,Pass
 Warmup Convergence Information,THERMAL ZONE 10,SizingPeriod: SAN FRANCISCO INTL AP ANN CLG 2% CONDNS ENTH=>MDB,8.3842699775E-002,0.1288650081,Pass,Pass,0.1994096444,0.6342421435,Pass,Pass
 Warmup Convergence Information,THERMAL ZONE 17,SizingPeriod: SAN FRANCISCO INTL AP ANN CLG 2% CONDNS ENTH=>MDB,8.3884451652E-002,0.1356431113,Pass,Pass,0.2227542563,0.5112750842,Pass,Pass
 Warmup Convergence Information,THERMAL ZONE 19,SizingPeriod: SAN FRANCISCO INTL AP ANN CLG 2% CONDNS ENTH=>MDB,8.3900131468E-002,0.1330208607,Pass,Pass,0.2174754473,0.5388840563,Pass,Pass
 Warmup Convergence Information,THERMAL ZONE 2,SizingPeriod: SAN FRANCISCO INTL AP ANN CLG 2% CONDNS ENTH=>MDB,1.9186712980E-002,1.2726048249E-002,Pass,Pass,1.1262867190E-002,2.4936445855E-002,Pass,Pass
 Warmup Convergence Information,THERMAL ZONE 20,SizingPeriod: SAN FRANCISCO INTL AP ANN CLG 2% CONDNS ENTH=>MDB,1.0443781278E-003,1.0824891223E-003,Pass,Pass,9.4704188527E-002,8.3956213167E-002,Pass,Pass
Environment,SAN FRANCISCO INTL AP ANN CLG 2% CONDNS WB=>MDB,SizingPeriod:DesignDay,08/21,08/21,SummerDesignDay,1,N/A,N/A,N/A,N/A,N/A,N/A
Environment:Daylight Saving,No,SizingPeriod:DesignDay
Environment:Design Day Data,22.40,8.50,DefaultMultipliers,101301,310,5.9,0.00,No ,No 
Environment:Design_Day_Misc,233,1106.3,0.2000,0.1216,1.0,-3.33,12.4,ASHRAETau
Environment:WarmupDays,  6
 Warmup Convergence Information,THERMAL ZONE 15,SizingPeriod: SAN FRANCISCO INTL AP ANN CLG 2% CONDNS WB=>MDB,4.4038007612E-003,7.2071464266E-003,Pass,Pass,1.0910555794E-002,1.0013079790E-002,Pass,Pass
 Warmup Convergence Information,THERMAL ZONE 1,SizingPeriod: SAN FRANCISCO INTL AP ANN CLG 2% CONDNS WB=>MDB,8.4040642824E-002,0.1454468817,Pass,Pass,0.5483434559,3.7180430567,Pass,Pass
 Warmup Convergence Information,THERMAL ZONE 18,SizingPeriod: SAN FRANCISCO INTL AP ANN CLG 2% CONDNS WB=>MDB,9.4366562312E-003,2.3612952605E-002,Pass,Pass,0.3651775661,1.9336936705,Pass,Pass
 Warmup Convergence Information,THERMAL ZONE 9,SizingPeriod: SAN FRANCISCO INTL AP ANN CLG 2% CONDNS WB=>MDB,2.2238982407E-002,8.7278290570E-003,Pass,Pass,1.8542195209E-003,6.6446813245E-004,Pass,Pass
 Warmup Convergence Information,THERMAL ZONE 16,SizingPeriod: SAN FRANCISCO INTL AP ANN CLG 2% CONDNS WB=>MDB,8.4077795419E-002,0.1986514725,Pass,Pass,0.3082330560,1.6623928882,Pass,Pass
 Warmup Convergence Information,THERMAL ZONE 13,SizingPeriod: SAN FRANCISCO INTL AP ANN CLG 2% CONDNS WB=>MDB,1.5443517730E-002,3.1307591105E-002,Pass,Pass,0.2363233534,0.7253096767,Pass,Pass
 Warmup Convergence Information,THERMAL ZONE 5,SizingPeriod: SAN FRANCISCO INTL AP ANN CLG 2% CONDNS WB=>MDB,8.3844082184E-002,0.1107781071,Pass,Pass,0.1692024542,0.3826561701,Pass,Pass
 Warmup Convergence Information,THERMAL ZONE 8,SizingPeriod: SAN FRANCISCO INTL AP ANN CLG 2% CONDNS WB=>MDB,1.0097497686E-002,2.3539416981E-002,Pass,Pass,0.2197151599,0.6052790716,Pass,Pass
 Warmup Convergence Information,THERMAL ZONE 3,SizingPeriod: SAN FRANCISCO INTL AP ANN CLG 2% CONDNS WB=>MDB,8.3752556913E-002,0.1090338620,Pass,Pass,0.4995968797,3.2920933796,Pass,Pass
 Warmup Convergence Information,THERMAL ZONE 11,SizingPeriod: SAN FRANCISCO INTL AP ANN CLG 2% CONDNS WB=>MDB,8.3841816728E-002,0.1220593978,Pass,Pass,0.3200518665,1.6819859560,Pass,Pass
 Warmup Convergence Information,THERMAL ZONE 4,SizingPeriod: SAN FRANCISCO INTL AP ANN CLG 2% CONDNS WB=>MDB,8.3932564063E-002,0.1667573734,Pass,Pass,0.2541619890,1.1324292000,Pass,Pass
 Warmup Convergence Information,THERMAL ZONE 7,SizingPeriod: SAN FRANCISCO INTL AP ANN CLG 2% CONDNS WB=>MDB,1.6951061874E-002,1.4455125547E-002,Pass,Pass,0.1799787837,0.7328847047,Pass,Pass
 Warmup Convergence Information,THERMAL ZONE 14,SizingPeriod: SAN FRANCISCO INTL AP ANN CLG 2% CONDNS WB=>MDB,8.3781328499E-002,0.1254794682,Pass,Pass,0.1956092349,0.6205588598,Pass,Pass
 Warmup Convergence Information,THERMAL ZONE 12,SizingPeriod: SAN FRANCISCO INTL AP ANN CLG 2% CONDNS WB=>MDB,8.3750814986E-002,0.1131509275,Pass,Pass,0.1835873886,0.5083182023,Pass,Pass
 Warmup Convergence Information,THERMAL ZONE 6,SizingPeriod: SAN FRANCISCO INTL AP ANN CLG 2% CONDNS WB=>MDB,8.3787126174E-002,0.1342760137,Pass,Pass,0.2436391082,0.6555138221,Pass,Pass
 Warmup Convergence Information,THERMAL ZONE 10,SizingPeriod: SAN FRANCISCO INTL AP ANN CLG 2% CONDNS WB=>MDB,8.3828131571E-002,0.1288767369,Pass,Pass,0.4812695859,3.3349741258,Pass,Pass
 Warmup Convergence Information,THERMAL ZONE 17,SizingPeriod: SAN FRANCISCO INTL AP ANN CLG 2% CONDNS WB=>MDB,8.3929201021E-002,0.1361298852,Pass,Pass,0.2295460158,0.5374955108,Pass,Pass
 Warmup Convergence Information,THERMAL ZONE 19,SizingPeriod: SAN FRANCISCO INTL AP ANN CLG 2% CONDNS WB=>MDB,8.3870151667E-002,0.1332803020,Pass,Pass,0.2720929419,1.0538109726,Pass,Pass
 Warmup Convergence Information,THERMAL ZONE 2,SizingPeriod: SAN FRANCISCO INTL AP ANN CLG 2% CONDNS WB=>MDB,1.8705848516E-002,1.2839162383E-002,Pass,Pass,1.3099796588E-002,2.9402528025E-002,Pass,Pass
 Warmup Convergence Information,THERMAL ZONE 20,SizingPeriod: SAN FRANCISCO INTL AP ANN CLG 2% CONDNS WB=>MDB,9.5102643183E-004,9.9907551478E-004,Pass,Pass,8.6607795914E-002,7.8810375860E-002,Pass,Pass
Environment,SAN FRANCISCO INTL AP ANN CLG .4% CONDNS DP=>MDB,SizingPeriod:DesignDay,08/21,08/21,SummerDesignDay,1,N/A,N/A,N/A,N/A,N/A,N/A
Environment:Daylight Saving,No,SizingPeriod:DesignDay
Environment:Design Day Data,19.90,8.50,DefaultMultipliers,101301,310,5.9,0.00,No ,No 
Environment:Design_Day_Misc,233,1106.3,0.2000,0.1216,1.0,-3.33,12.4,ASHRAETau
Environment:WarmupDays,  6
 Warmup Convergence Information,THERMAL ZONE 15,SizingPeriod: SAN FRANCISCO INTL AP ANN CLG .4% CONDNS DP=>MDB,5.9660238749E-003,8.5892493772E-003,Pass,Pass,9.5893482830E-003,9.7132502578E-003,Pass,Pass
 Warmup Convergence Information,THERMAL ZONE 1,SizingPeriod: SAN FRANCISCO INTL AP ANN CLG .4% CONDNS DP=>MDB,8.4048442353E-002,0.1419219732,Pass,Pass,0.1741259506,0.4910461133,Pass,Pass
 Warmup Convergence Information,THERMAL ZONE 18,SizingPeriod: SAN FRANCISCO INTL AP ANN CLG .4% CONDNS DP=>MDB,6.2632757185E-004,7.0325434484E-004,Pass,Pass,0.2964843510,1.1024359799,Pass,Pass
 Warmup Convergence Information,THERMAL ZONE 9,SizingPeriod: SAN FRANCISCO INTL AP ANN CLG .4% CONDNS DP=>MDB,2.1798345162E-002,9.5953859230E-003,Pass,Pass,5.8847955591E-003,1.6041435767E-002,Pass,Pass
 Warmup Convergence Information,THERMAL ZONE 16,SizingPeriod: SAN FRANCISCO INTL AP ANN CLG .4% CONDNS DP=>MDB,8.4144111714E-002,0.1965435884,Pass,Pass,0.1740785560,0.4544251568,Pass,Pass
 Warmup Convergence Information,THERMAL ZONE 13,SizingPeriod: SAN FRANCISCO INTL AP ANN CLG .4% CONDNS DP=>MDB,2.1231858832E-003,4.5699855653E-003,Pass,Pass,0.2210038306,0.5559877030,Pass,Pass
 Warmup Convergence Information,THERMAL ZONE 5,SizingPeriod: SAN FRANCISCO INTL AP ANN CLG .4% CONDNS DP=>MDB,8.3785401814E-002,0.1114554965,Pass,Pass,3.7609932447,35.1364264404,Pass,Pass
 Warmup Convergence Information,THERMAL ZONE 8,SizingPeriod: SAN FRANCISCO INTL AP ANN CLG .4% CONDNS DP=>MDB,4.9593041440E-004,5.2756490036E-004,Pass,Pass,0.2372447317,0.6299175343,Pass,Pass
 Warmup Convergence Information,THERMAL ZONE 3,SizingPeriod: SAN FRANCISCO INTL AP ANN CLG .4% CONDNS DP=>MDB,8.3755495063E-002,0.1089112029,Pass,Pass,0.2238595242,0.7245082077,Pass,Pass
 Warmup Convergence Information,THERMAL ZONE 11,SizingPeriod: SAN FRANCISCO INTL AP ANN CLG .4% CONDNS DP=>MDB,8.3945904331E-002,0.1160814718,Pass,Pass,0.1972997653,0.6423136353,Pass,Pass
 Warmup Convergence Information,THERMAL ZONE 4,SizingPeriod: SAN FRANCISCO INTL AP ANN CLG .4% CONDNS DP=>MDB,8.4125189080E-002,0.1667445827,Pass,Pass,0.2275946104,0.9214600107,Pass,Pass
 Warmup Convergence Information,THERMAL ZONE 7,SizingPeriod: SAN FRANCISCO INTL AP ANN CLG .4% CONDNS DP=>MDB,1.2076573421E-002,1.4405153796E-002,Pass,Pass,0.1870608855,0.4559086130,Pass,Pass
 Warmup Convergence Information,THERMAL ZONE 14,SizingPeriod: SAN FRANCISCO INTL AP ANN CLG .4% CONDNS DP=>MDB,8.3798487423E-002,0.1196946616,Pass,Pass,0.4820382225,3.3815820844,Pass,Pass
 Warmup Convergence Information,THERMAL ZONE 12,SizingPeriod: SAN FRANCISCO INTL AP ANN CLG .4% CONDNS DP=>MDB,8.3759504635E-002,0.1141779124,Pass,Pass,0.1707946080,0.4002298870,Pass,Pass
 Warmup Convergence Information,THERMAL ZONE 6,SizingPeriod: SAN FRANCISCO INTL AP ANN CLG .4% CONDNS DP=>MDB,8.3814072257E-002,0.1397472366,Pass,Pass,0.3379653867,1.4581353270,Pass,Pass
 Warmup Convergence Information,THERMAL ZONE 10,SizingPeriod: SAN FRANCISCO INTL AP ANN CLG .4% CONDNS DP=>MDB,8.3856613217E-002,0.1232297337,Pass,Pass,0.4589971238,2.9032362639,Pass,Pass
 Warmup Convergence Information,THERMAL ZONE 17,SizingPeriod: SAN FRANCISCO INTL AP ANN CLG .4% CONDNS DP=>MDB,8.4019981279E-002,0.1409354701,Pass,Pass,0.3112062615,1.0232906125,Pass,Pass
 Warmup Convergence Information,THERMAL ZONE 19,SizingPeriod: SAN FRANCISCO INTL AP ANN CLG .4% CONDNS DP=>MDB,8.3924891742E-002,0.1380790203,Pass,Pass,0.2782331202,0.9807317327,Pass,Pass
 Warmup Convergence Information,THERMAL ZONE 2,SizingPeriod: SAN FRANCISCO INTL AP ANN CLG .4% CONDNS DP=>MDB,9.8087144799E-003,1.2135067579E-002,Pass,Pass,0.2062580889,0.7531640211,Pass,Pass
 Warmup Convergence Information,THERMAL ZONE 20,SizingPeriod: SAN FRANCISCO INTL AP ANN CLG .4% CONDNS DP=>MDB,1.1837546054E-003,1.2304940682E-003,Pass,Pass,5.2876600210E-002,4.8190960825E-002,Pass,Pass
Environment,SAN FRANCISCO INTL AP ANN HTG 99.6% CONDNS DB,SizingPeriod:DesignDay,01/21,01/21,WinterDesignDay,1,N/A,N/A,N/A,N/A,N/A,N/A
Environment:Daylight Saving,No,SizingPeriod:DesignDay
Environment:Design Day Data,3.80,0.00,DefaultMultipliers,101301,150,2.2,0.00,No ,No 
Environment:Design_Day_Misc, 21,1229.0,0.1415,5.7310E-002,1.0,-11.15,-20.1,ASHRAEClearSky
Environment:WarmupDays,  6
 Warmup Convergence Information,THERMAL ZONE 15,SizingPeriod: SAN FRANCISCO INTL AP ANN HTG 99.6% CONDNS DB,9.6659448481E-006,6.3307113995E-006,Pass,Pass,1.7644810797E-005,1.3561331848E-005,Pass,Pass
 Warmup Convergence Information,THERMAL ZONE 1,SizingPeriod: SAN FRANCISCO INTL AP ANN HTG 99.6% CONDNS DB,1.7639170808E-005,1.2283457019E-005,Pass,Pass,1.6388845254E-005,1.2585289042E-005,Pass,Pass
 Warmup Convergence Information,THERMAL ZONE 18,SizingPeriod: SAN FRANCISCO INTL AP ANN HTG 99.6% CONDNS DB,2.1994570455E-005,1.5619705858E-005,Pass,Pass,1.6103229892E-005,1.2327190650E-005,Pass,Pass
 Warmup Convergence Information,THERMAL ZONE 9,SizingPeriod: SAN FRANCISCO INTL AP ANN HTG 99.6% CONDNS DB,4.2480359250E-005,1.1044690156E-005,Pass,Pass,1.8298384992E-005,1.3982557830E-005,Pass,Pass
 Warmup Convergence Information,THERMAL ZONE 16,SizingPeriod: SAN FRANCISCO INTL AP ANN HTG 99.6% CONDNS DB,1.9736844929E-005,1.3984908824E-005,Pass,Pass,1.5359759985E-005,1.1794120619E-005,Pass,Pass
 Warmup Convergence Information,THERMAL ZONE 13,SizingPeriod: SAN FRANCISCO INTL AP ANN HTG 99.6% CONDNS DB,2.2174863088E-005,1.5412338406E-005,Pass,Pass,1.6363472577E-005,1.2537172184E-005,Pass,Pass
 Warmup Convergence Information,THERMAL ZONE 5,SizingPeriod: SAN FRANCISCO INTL AP ANN HTG 99.6% CONDNS DB,1.9605830548E-005,1.3832051759E-005,Pass,Pass,1.4454239132E-005,1.1211308984E-005,Pass,Pass
 Warmup Convergence Information,THERMAL ZONE 8,SizingPeriod: SAN FRANCISCO INTL AP ANN HTG 99.6% CONDNS DB,1.8570591190E-005,1.2488989458E-005,Pass,Pass,1.6347048580E-005,1.2563714900E-005,Pass,Pass
 Warmup Convergence Information,THERMAL ZONE 3,SizingPeriod: SAN FRANCISCO INTL AP ANN HTG 99.6% CONDNS DB,3.9137381401E-003,2.4994454269E-003,Pass,Pass,4.7384767605E-003,2.0431825130E-003,Pass,Pass
 Warmup Convergence Information,THERMAL ZONE 11,SizingPeriod: SAN FRANCISCO INTL AP ANN HTG 99.6% CONDNS DB,1.5998101784E-004,6.4144288846E-004,Pass,Pass,8.6866409793E-005,4.8986955699E-004,Pass,Pass
 Warmup Convergence Information,THERMAL ZONE 4,SizingPeriod: SAN FRANCISCO INTL AP ANN HTG 99.6% CONDNS DB,1.7597804919E-005,1.2284402310E-005,Pass,Pass,1.6345207802E-005,1.2541436393E-005,Pass,Pass
 Warmup Convergence Information,THERMAL ZONE 7,SizingPeriod: SAN FRANCISCO INTL AP ANN HTG 99.6% CONDNS DB,2.8873688946E-005,8.7696134433E-006,Pass,Pass,1.8159476729E-005,1.3904966545E-005,Pass,Pass
 Warmup Convergence Information,THERMAL ZONE 14,SizingPeriod: SAN FRANCISCO INTL AP ANN HTG 99.6% CONDNS DB,2.6197166028E-003,2.5303151086E-005,Pass,Pass,4.1041052014E-003,1.9687993320E-005,Pass,Pass
 Warmup Convergence Information,THERMAL ZONE 12,SizingPeriod: SAN FRANCISCO INTL AP ANN HTG 99.6% CONDNS DB,2.3043796691E-003,1.1707013339E-003,Pass,Pass,2.0303684822E-003,1.5817780302E-003,Pass,Pass
 Warmup Convergence Information,THERMAL ZONE 6,SizingPeriod: SAN FRANCISCO INTL AP ANN HTG 99.6% CONDNS DB,1.8812475417E-003,2.2532744720E-003,Pass,Pass,1.4683294973E-003,2.2088016426E-003,Pass,Pass
 Warmup Convergence Information,THERMAL ZONE 10,SizingPeriod: SAN FRANCISCO INTL AP ANN HTG 99.6% CONDNS DB,1.6632625780E-003,1.5135799728E-003,Pass,Pass,1.3339551052E-003,1.5981159573E-003,Pass,Pass
 Warmup Convergence Information,THERMAL ZONE 17,SizingPeriod: SAN FRANCISCO INTL AP ANN HTG 99.6% CONDNS DB,2.9031034000E-005,1.9686487015E-005,Pass,Pass,1.4159860833E-005,1.0993886481E-005,Pass,Pass
 Warmup Convergence Information,THERMAL ZONE 19,SizingPeriod: SAN FRANCISCO INTL AP ANN HTG 99.6% CONDNS DB,9.4722347685E-004,1.9966889638E-003,Pass,Pass,7.1112302944E-004,1.7871922758E-003,Pass,Pass
 Warmup Convergence Information,THERMAL ZONE 2,SizingPeriod: SAN FRANCISCO INTL AP ANN HTG 99.6% CONDNS DB,3.7251903148E-005,9.6450075432E-006,Pass,Pass,1.7847605818E-005,1.3615662047E-005,Pass,Pass
 Warmup Convergence Information,THERMAL ZONE 20,SizingPeriod: SAN FRANCISCO INTL AP ANN HTG 99.6% CONDNS DB,1.7861312091E-005,1.2478324685E-005,Pass,Pass,1.6247124752E-005,1.2464642339E-005,Pass,Pass
Environment,SAN FRANCISCO INTL AP ANN CLG 2% CONDNS DB=>MWB,SizingPeriod:DesignDay,08/21,08/21,SummerDesignDay,1,N/A,N/A,N/A,N/A,N/A,N/A
Environment:Daylight Saving,No,SizingPeriod:DesignDay
Environment:Design Day Data,23.60,8.50,DefaultMultipliers,101301,310,5.9,0.00,No ,No 
Environment:Design_Day_Misc,233,1106.3,0.2000,0.1216,1.0,-3.33,12.4,ASHRAETau
Environment:WarmupDays,  8
 Warmup Convergence Information,THERMAL ZONE 15,SizingPeriod: SAN FRANCISCO INTL AP ANN CLG 2% CONDNS DB=>MWB,3.5571523402E-003,6.1218013535E-003,Pass,Pass,1.1565563738E-002,1.0124902211E-002,Pass,Pass
 Warmup Convergence Information,THERMAL ZONE 1,SizingPeriod: SAN FRANCISCO INTL AP ANN CLG 2% CONDNS DB=>MWB,8.4044326419E-002,0.1456490100,Pass,Pass,0.1809401604,0.4884566406,Pass,Pass
 Warmup Convergence Information,THERMAL ZONE 18,SizingPeriod: SAN FRANCISCO INTL AP ANN CLG 2% CONDNS DB=>MWB,1.6321227188E-002,3.1630480416E-002,Pass,Pass,0.1970733601,0.4857246048,Pass,Pass
 Warmup Convergence Information,THERMAL ZONE 9,SizingPeriod: SAN FRANCISCO INTL AP ANN CLG 2% CONDNS DB=>MWB,2.2172561348E-002,8.6487775738E-003,Pass,Pass,1.8232760298E-003,6.4436046575E-004,Pass,Pass
 Warmup Convergence Information,THERMAL ZONE 16,SizingPeriod: SAN FRANCISCO INTL AP ANN CLG 2% CONDNS DB=>MWB,8.4022450486E-002,0.1970909410,Pass,Pass,0.5313593004,3.7799908436,Pass,Pass
 Warmup Convergence Information,THERMAL ZONE 13,SizingPeriod: SAN FRANCISCO INTL AP ANN CLG 2% CONDNS DB=>MWB,2.1676298771E-002,3.6577470933E-002,Pass,Pass,0.2069056375,0.5436996005,Pass,Pass
 Warmup Convergence Information,THERMAL ZONE 5,SizingPeriod: SAN FRANCISCO INTL AP ANN CLG 2% CONDNS DB=>MWB,8.3664357859E-002,0.1104787128,Pass,Pass,0.2169852985,0.7246207769,Pass,Pass
 Warmup Convergence Information,THERMAL ZONE 8,SizingPeriod: SAN FRANCISCO INTL AP ANN CLG 2% CONDNS DB=>MWB,1.5502304299E-002,3.1527000842E-002,Pass,Pass,0.2047448387,0.5126485466,Pass,Pass
 Warmup Convergence Information,THERMAL ZONE 3,SizingPeriod: SAN FRANCISCO INTL AP ANN CLG 2% CONDNS DB=>MWB,8.3781964090E-002,0.1090023104,Pass,Pass,0.4111527118,1.9867466919,Pass,Pass
 Warmup Convergence Information,THERMAL ZONE 11,SizingPeriod: SAN FRANCISCO INTL AP ANN CLG 2% CONDNS DB=>MWB,8.3725800554E-002,0.1236079804,Pass,Pass,0.1827477962,0.6379413003,Pass,Pass
 Warmup Convergence Information,THERMAL ZONE 4,SizingPeriod: SAN FRANCISCO INTL AP ANN CLG 2% CONDNS DB=>MWB,8.3995464964E-002,0.1664285431,Pass,Pass,1.9621793676,17.5425697210,Pass,Pass
 Warmup Convergence Information,THERMAL ZONE 7,SizingPeriod: SAN FRANCISCO INTL AP ANN CLG 2% CONDNS DB=>MWB,1.9554809154E-002,1.3990564309E-002,Pass,Pass,3.9102113447E-002,6.6695577803E-002,Pass,Pass
 Warmup Convergence Information,THERMAL ZONE 14,SizingPeriod: SAN FRANCISCO INTL AP ANN CLG 2% CONDNS DB=>MWB,8.3861215914E-002,0.1271545077,Pass,Pass,0.1427127756,0.3543274935,Pass,Pass
 Warmup Convergence Information,THERMAL ZONE 12,SizingPeriod: SAN FRANCISCO INTL AP ANN CLG 2% CONDNS DB=>MWB,8.3730165841E-002,0.1135121201,Pass,Pass,0.1904550174,0.5929850424,Pass,Pass
 Warmup Convergence Information,THERMAL ZONE 6,SizingPeriod: SAN FRANCISCO INTL AP ANN CLG 2% CONDNS DB=>MWB,8.3831603255E-002,0.1327425139,Pass,Pass,0.3767728372,1.9449002514,Pass,Pass
 Warmup Convergence Information,THERMAL ZONE 10,SizingPeriod: SAN FRANCISCO INTL AP ANN CLG 2% CONDNS DB=>MWB,8.3712912051E-002,0.1302610865,Pass,Pass,0.2234568256,0.7852452540,Pass,Pass
 Warmup Convergence Information,THERMAL ZONE 17,SizingPeriod: SAN FRANCISCO INTL AP ANN CLG 2% CONDNS DB=>MWB,8.3889725124E-002,0.1327380471,Pass,Pass,0.2531884040,0.7906330321,Pass,Pass
 Warmup Convergence Information,THERMAL ZONE 19,SizingPeriod: SAN FRANCISCO INTL AP ANN CLG 2% CONDNS DB=>MWB,8.3841944081E-002,0.1311143994,Pass,Pass,0.1794653760,0.4484209464,Pass,Pass
 Warmup Convergence Information,THERMAL ZONE 2,SizingPeriod: SAN FRANCISCO INTL AP ANN CLG 2% CONDNS DB=>MWB,2.2789551704E-002,1.0100447533E-002,Pass,Pass,1.9351070558E-003,8.3069029413E-004,Pass,Pass
 Warmup Convergence Information,THERMAL ZONE 20,SizingPeriod: SAN FRANCISCO INTL AP ANN CLG 2% CONDNS DB=>MWB,7.9416455401E-004,8.5328128368E-004,Pass,Pass,0.4205194092,1.8433288613,Pass,Pass
Environment,SAN FRANCISCO INTL AP ANN CLG .4% CONDNS ENTH=>MDB,SizingPeriod:DesignDay,08/21,08/21,SummerDesignDay,1,N/A,N/A,N/A,N/A,N/A,N/A
Environment:Daylight Saving,No,SizingPeriod:DesignDay
Environment:Design Day Data,25.80,8.50,DefaultMultipliers,101301,310,5.9,0.00,No ,No 
Environment:Design_Day_Misc,233,1106.3,0.2000,0.1216,1.0,-3.33,12.4,ASHRAETau
Environment:WarmupDays,  6
 Warmup Convergence Information,THERMAL ZONE 15,SizingPeriod: SAN FRANCISCO INTL AP ANN CLG .4% CONDNS ENTH=>MDB,1.9454379414E-003,3.5751117168E-003,Pass,Pass,1.3195041686E-002,1.0208899086E-002,Pass,Pass
 Warmup Convergence Information,THERMAL ZONE 1,SizingPeriod: SAN FRANCISCO INTL AP ANN CLG .4% CONDNS ENTH=>MDB,8.3902477999E-002,0.1459597107,Pass,Pass,0.6786430743,3.9514454338,Pass,Pass
 Warmup Convergence Information,THERMAL ZONE 18,SizingPeriod: SAN FRANCISCO INTL AP ANN CLG .4% CONDNS ENTH=>MDB,3.2522524403E-002,3.7845823615E-002,Pass,Pass,0.1922733691,0.5810363967,Pass,Pass
 Warmup Convergence Information,THERMAL ZONE 9,SizingPeriod: SAN FRANCISCO INTL AP ANN CLG .4% CONDNS ENTH=>MDB,2.2078979697E-002,8.4957310806E-003,Pass,Pass,1.7619887603E-003,6.1829870790E-004,Pass,Pass
 Warmup Convergence Information,THERMAL ZONE 16,SizingPeriod: SAN FRANCISCO INTL AP ANN CLG .4% CONDNS ENTH=>MDB,8.4069734782E-002,0.1944777871,Pass,Pass,0.7135708663,5.0061848293,Pass,Pass
 Warmup Convergence Information,THERMAL ZONE 13,SizingPeriod: SAN FRANCISCO INTL AP ANN CLG .4% CONDNS ENTH=>MDB,3.5859401738E-002,4.0666008111E-002,Pass,Pass,0.1700742885,0.4846065777,Pass,Pass
 Warmup Convergence Information,THERMAL ZONE 5,SizingPeriod: SAN FRANCISCO INTL AP ANN CLG .4% CONDNS ENTH=>MDB,8.3555180770E-002,0.1106794780,Pass,Pass,6.6794389680E-002,6.1934906304E-002,Pass,Pass
 Warmup Convergence Information,THERMAL ZONE 8,SizingPeriod: SAN FRANCISCO INTL AP ANN CLG .4% CONDNS ENTH=>MDB,2.7801468206E-002,3.9382382245E-002,Pass,Pass,0.2361744666,0.7408960722,Pass,Pass
 Warmup Convergence Information,THERMAL ZONE 3,SizingPeriod: SAN FRANCISCO INTL AP ANN CLG .4% CONDNS ENTH=>MDB,8.3614494455E-002,0.1083777252,Pass,Pass,7.5117066112E-002,7.7727587227E-002,Pass,Pass
 Warmup Convergence Information,THERMAL ZONE 11,SizingPeriod: SAN FRANCISCO INTL AP ANN CLG .4% CONDNS ENTH=>MDB,8.3611809742E-002,0.1286870897,Pass,Pass,0.1776683301,0.7933796964,Pass,Pass
 Warmup Convergence Information,THERMAL ZONE 4,SizingPeriod: SAN FRANCISCO INTL AP ANN CLG .4% CONDNS ENTH=>MDB,8.3871832046E-002,0.1677197618,Pass,Pass,0.2435408540,1.0358776109,Pass,Pass
 Warmup Convergence Information,THERMAL ZONE 7,SizingPeriod: SAN FRANCISCO INTL AP ANN CLG .4% CONDNS ENTH=>MDB,2.5359658271E-002,1.0246956067E-002,Pass,Pass,2.2998248004E-003,9.9363775606E-004,Pass,Pass
 Warmup Convergence Information,THERMAL ZONE 14,SizingPeriod: SAN FRANCISCO INTL AP ANN CLG .4% CONDNS ENTH=>MDB,8.3664722029E-002,0.1313296432,Pass,Pass,0.1169895383,0.2832553315,Pass,Pass
 Warmup Convergence Information,THERMAL ZONE 12,SizingPeriod: SAN FRANCISCO INTL AP ANN CLG .4% CONDNS ENTH=>MDB,8.3632012393E-002,0.1136027693,Pass,Pass,0.1634446113,0.3287170236,Pass,Pass
 Warmup Convergence Information,THERMAL ZONE 6,SizingPeriod: SAN FRANCISCO INTL AP ANN CLG .4% CONDNS ENTH=>MDB,8.3667424027E-002,0.1295323473,Pass,Pass,9.1636987378E-002,8.9720922228E-002,Pass,Pass
 Warmup Convergence Information,THERMAL ZONE 10,SizingPeriod: SAN FRANCISCO INTL AP ANN CLG .4% CONDNS ENTH=>MDB,8.3647872280E-002,0.1347880075,Pass,Pass,0.3581716423,2.3443935834,Pass,Pass
 Warmup Convergence Information,THERMAL ZONE 17,SizingPeriod: SAN FRANCISCO INTL AP ANN CLG .4% CONDNS ENTH=>MDB,8.3682269612E-002,0.1283441523,Pass,Pass,6.6192890300E-002,5.2826453907E-002,Pass,Pass
 Warmup Convergence Information,THERMAL ZONE 19,SizingPeriod: SAN FRANCISCO INTL AP ANN CLG .4% CONDNS ENTH=>MDB,8.3669771471E-002,0.1278745342,Pass,Pass,5.9671419297E-002,4.9240106405E-002,Pass,Pass
 Warmup Convergence Information,THERMAL ZONE 2,SizingPeriod: SAN FRANCISCO INTL AP ANN CLG .4% CONDNS ENTH=>MDB,2.2966368570E-002,1.0567946238E-002,Pass,Pass,1.8671789696E-003,8.1095655891E-004,Pass,Pass
[...]
 Warmup Convergence Information,THERMAL ZONE 13,SizingPeriod: SAN FRANCISCO INTL AP ANN CLG 2% CONDNS DP=>MDB,6.3869153767E-004,6.5362766427E-004,Pass,Pass,0.3769606946,1.9171115022,Pass,Pass
 Warmup Convergence Information,THERMAL ZONE 5,SizingPeriod: SAN FRANCISCO INTL AP ANN CLG 2% CONDNS DP=>MDB,8.3772862434E-002,0.1117801859,Pass,Pass,0.1862145149,0.4987845939,Pass,Pass
 Warmup Convergence Information,THERMAL ZONE 8,SizingPeriod: SAN FRANCISCO INTL AP ANN CLG 2% CONDNS DP=>MDB,5.8507700826E-004,6.5567840921E-004,Pass,Pass,0.3129273496,1.2139817560,Pass,Pass
 Warmup Convergence Information,THERMAL ZONE 3,SizingPeriod: SAN FRANCISCO INTL AP ANN CLG 2% CONDNS DP=>MDB,8.3908537848E-002,0.1079574736,Pass,Pass,0.1838463141,0.4890545400,Pass,Pass
 Warmup Convergence Information,THERMAL ZONE 11,SizingPeriod: SAN FRANCISCO INTL AP ANN CLG 2% CONDNS DP=>MDB,8.3926444794E-002,0.1121031232,Pass,Pass,0.2020943531,0.6024810341,Pass,Pass
 Warmup Convergence Information,THERMAL ZONE 4,SizingPeriod: SAN FRANCISCO INTL AP ANN CLG 2% CONDNS DP=>MDB,8.4066008152E-002,0.1633106087,Pass,Pass,0.1822165810,0.5618923896,Pass,Pass
 Warmup Convergence Information,THERMAL ZONE 7,SizingPeriod: SAN FRANCISCO INTL AP ANN CLG 2% CONDNS DP=>MDB,1.0040703952E-002,1.3932403796E-002,Pass,Pass,1.2156163064,9.9310002381,Pass,Pass
 Warmup Convergence Information,THERMAL ZONE 14,SizingPeriod: SAN FRANCISCO INTL AP ANN CLG 2% CONDNS DP=>MDB,8.4025355469E-002,0.1180327572,Pass,Pass,0.5907638558,4.0874784457,Pass,Pass
 Warmup Convergence Information,THERMAL ZONE 12,SizingPeriod: SAN FRANCISCO INTL AP ANN CLG 2% CONDNS DP=>MDB,8.3845207671E-002,0.1143959047,Pass,Pass,0.1997217822,0.5663995834,Pass,Pass
 Warmup Convergence Information,THERMAL ZONE 6,SizingPeriod: SAN FRANCISCO INTL AP ANN CLG 2% CONDNS DP=>MDB,8.3939077391E-002,0.1411558267,Pass,Pass,0.2505671144,0.6779264034,Pass,Pass
 Warmup Convergence Information,THERMAL ZONE 10,SizingPeriod: SAN FRANCISCO INTL AP ANN CLG 2% CONDNS DP=>MDB,8.3896148833E-002,0.1214642094,Pass,Pass,0.2288225914,0.8709405698,Pass,Pass
 Warmup Convergence Information,THERMAL ZONE 17,SizingPeriod: SAN FRANCISCO INTL AP ANN CLG 2% CONDNS DP=>MDB,8.4048786992E-002,0.1438375776,Pass,Pass,0.2817451987,0.9735285635,Pass,Pass
 Warmup Convergence Information,THERMAL ZONE 19,SizingPeriod: SAN FRANCISCO INTL AP ANN CLG 2% CONDNS DP=>MDB,8.3961607668E-002,0.1402884208,Pass,Pass,0.2425328438,0.5790394443,Pass,Pass
 Warmup Convergence Information,THERMAL ZONE 2,SizingPeriod: SAN FRANCISCO INTL AP ANN CLG 2% CONDNS DP=>MDB,6.3055281059E-003,9.8753424050E-003,Pass,Pass,0.2198267301,0.7519032359,Pass,Pass
 Warmup Convergence Information,THERMAL ZONE 20,SizingPeriod: SAN FRANCISCO INTL AP ANN CLG 2% CONDNS DP=>MDB,1.1698198695E-003,1.2234211646E-003,Pass,Pass,4.6163082610E-002,4.2793130263E-002,Pass,Pass
Environment,SAN FRANCISCO INTL AP ANN CLG .4% CONDNS WB=>MDB,SizingPeriod:DesignDay,08/21,08/21,SummerDesignDay,1,N/A,N/A,N/A,N/A,N/A,N/A
Environment:Daylight Saving,No,SizingPeriod:DesignDay
Environment:Design Day Data,25.70,8.50,DefaultMultipliers,101301,310,5.9,0.00,No ,No 
Environment:Design_Day_Misc,233,1106.3,0.2000,0.1216,1.0,-3.33,12.4,ASHRAETau
Environment:WarmupDays,  6
 Warmup Convergence Information,THERMAL ZONE 15,SizingPeriod: SAN FRANCISCO INTL AP ANN CLG .4% CONDNS WB=>MDB,1.9769544987E-003,3.8788452978E-003,Pass,Pass,1.3035600956E-002,1.0195493970E-002,Pass,Pass
 Warmup Convergence Information,THERMAL ZONE 1,SizingPeriod: SAN FRANCISCO INTL AP ANN CLG .4% CONDNS WB=>MDB,8.3867121155E-002,0.1459280831,Pass,Pass,0.2710122469,1.1232336509,Pass,Pass
 Warmup Convergence Information,THERMAL ZONE 18,SizingPeriod: SAN FRANCISCO INTL AP ANN CLG .4% CONDNS WB=>MDB,3.0565502403E-002,3.7452500890E-002,Pass,Pass,0.2233060584,0.7192363519,Pass,Pass
 Warmup Convergence Information,THERMAL ZONE 9,SizingPeriod: SAN FRANCISCO INTL AP ANN CLG .4% CONDNS WB=>MDB,2.2068821788E-002,8.4864967086E-003,Pass,Pass,1.7519291264E-003,6.1427833115E-004,Pass,Pass
 Warmup Convergence Information,THERMAL ZONE 16,SizingPeriod: SAN FRANCISCO INTL AP ANN CLG .4% CONDNS WB=>MDB,8.3986842286E-002,0.1941605154,Pass,Pass,0.3262792211,1.0619196759,Pass,Pass
 Warmup Convergence Information,THERMAL ZONE 13,SizingPeriod: SAN FRANCISCO INTL AP ANN CLG .4% CONDNS WB=>MDB,3.4200198142E-002,4.0251687380E-002,Pass,Pass,0.3618444273,1.7800756943,Pass,Pass
 Warmup Convergence Information,THERMAL ZONE 5,SizingPeriod: SAN FRANCISCO INTL AP ANN CLG .4% CONDNS WB=>MDB,8.3606305850E-002,0.1102383878,Pass,Pass,7.0895461577E-002,6.8628033223E-002,Pass,Pass
 Warmup Convergence Information,THERMAL ZONE 8,SizingPeriod: SAN FRANCISCO INTL AP ANN CLG .4% CONDNS WB=>MDB,2.6283865358E-002,3.8728995568E-002,Pass,Pass,0.2116550025,0.6868524949,Pass,Pass
 Warmup Convergence Information,THERMAL ZONE 3,SizingPeriod: SAN FRANCISCO INTL AP ANN CLG .4% CONDNS WB=>MDB,8.3585318131E-002,0.1086327517,Pass,Pass,8.4838083627E-002,9.7957116315E-002,Pass,Pass
 Warmup Convergence Information,THERMAL ZONE 11,SizingPeriod: SAN FRANCISCO INTL AP ANN CLG .4% CONDNS WB=>MDB,8.3653183506E-002,0.1285088793,Pass,Pass,0.1731311495,0.7168923017,Pass,Pass
 Warmup Convergence Information,THERMAL ZONE 4,SizingPeriod: SAN FRANCISCO INTL AP ANN CLG .4% CONDNS WB=>MDB,8.3896655762E-002,0.1678772978,Pass,Pass,0.2001758275,0.6659471176,Pass,Pass
 Warmup Convergence Information,THERMAL ZONE 7,SizingPeriod: SAN FRANCISCO INTL AP ANN CLG .4% CONDNS WB=>MDB,2.4648705542E-002,1.1145509545E-002,Pass,Pass,6.2713817667E-003,2.0855344364E-002,Pass,Pass
 Warmup Convergence Information,THERMAL ZONE 14,SizingPeriod: SAN FRANCISCO INTL AP ANN CLG .4% CONDNS WB=>MDB,8.3711490411E-002,0.1311348618,Pass,Pass,0.1141254782,0.2583538860,Pass,Pass
 Warmup Convergence Information,THERMAL ZONE 12,SizingPeriod: SAN FRANCISCO INTL AP ANN CLG .4% CONDNS WB=>MDB,8.3577816210E-002,0.1131821306,Pass,Pass,0.1973701635,0.5699924315,Pass,Pass
 Warmup Convergence Information,THERMAL ZONE 6,SizingPeriod: SAN FRANCISCO INTL AP ANN CLG .4% CONDNS WB=>MDB,8.3701813170E-002,0.1299798990,Pass,Pass,0.1016101114,0.1076011096,Pass,Pass
 Warmup Convergence Information,THERMAL ZONE 10,SizingPeriod: SAN FRANCISCO INTL AP ANN CLG .4% CONDNS WB=>MDB,8.3652825467E-002,0.1343323356,Pass,Pass,0.1561297204,0.4535124403,Pass,Pass
 Warmup Convergence Information,THERMAL ZONE 17,SizingPeriod: SAN FRANCISCO INTL AP ANN CLG .4% CONDNS WB=>MDB,8.3779245413E-002,0.1291943719,Pass,Pass,7.0037947493E-002,5.5546840943E-002,Pass,Pass
 Warmup Convergence Information,THERMAL ZONE 19,SizingPeriod: SAN FRANCISCO INTL AP ANN CLG .4% CONDNS WB=>MDB,8.3725499851E-002,0.1279635088,Pass,Pass,6.1513852922E-002,5.0673155213E-002,Pass,Pass
 Warmup Convergence Information,THERMAL ZONE 2,SizingPeriod: SAN FRANCISCO INTL AP ANN CLG .4% CONDNS WB=>MDB,2.2927680659E-002,1.0416432145E-002,Pass,Pass,1.8650744856E-003,8.1878185501E-004,Pass,Pass
 Warmup Convergence Information,THERMAL ZONE 20,SizingPeriod: SAN FRANCISCO INTL AP ANN CLG .4% CONDNS WB=>MDB,7.3091394771E-004,7.3260885268E-004,Pass,Pass,0.4242486547,2.4635685812,Pass,Pass
Environment,SAN FRANCISCO INTL AP ANN HUM_N 99% CONDNS DP=>MCDB,SizingPeriod:DesignDay,01/21,01/21,WinterDesignDay,1,N/A,N/A,N/A,N/A,N/A,N/A
Environment:Daylight Saving,No,SizingPeriod:DesignDay
Environment:Design Day Data,11.20,0.00,DefaultMultipliers,101301,150,2.2,0.00,No ,No 
Environment:Design_Day_Misc, 21,1229.0,0.1415,5.7310E-002,1.0,-11.15,-20.1,ASHRAEClearSky
Environment:WarmupDays,  6
 Warmup Convergence Information,THERMAL ZONE 15,SizingPeriod: SAN FRANCISCO INTL AP ANN HUM_N 99% CONDNS DP=>MCDB,5.5298840863E-006,4.6302126301E-006,Pass,Pass,2.1810670089E-005,1.6360313687E-005,Pass,Pass
 Warmup Convergence Information,THERMAL ZONE 1,SizingPeriod: SAN FRANCISCO INTL AP ANN HUM_N 99% CONDNS DP=>MCDB,1.6826881224E-005,1.3484548783E-005,Pass,Pass,2.2559052918E-005,1.6813424067E-005,Pass,Pass
 Warmup Convergence Information,THERMAL ZONE 18,SizingPeriod: SAN FRANCISCO INTL AP ANN HUM_N 99% CONDNS DP=>MCDB,2.8865283482E-003,1.2765400531E-003,Pass,Pass,3.6380924230E-003,2.2362431633E-003,Pass,Pass
 Warmup Convergence Information,THERMAL ZONE 9,SizingPeriod: SAN FRANCISCO INTL AP ANN HUM_N 99% CONDNS DP=>MCDB,1.7011284876E-006,1.4307674766E-006,Pass,Pass,2.3274698714E-005,1.7477665323E-005,Pass,Pass
 Warmup Convergence Information,THERMAL ZONE 16,SizingPeriod: SAN FRANCISCO INTL AP ANN HUM_N 99% CONDNS DP=>MCDB,3.2030730303E-003,1.6049390587E-005,Pass,Pass,5.2257641379E-003,2.2217118408E-005,Pass,Pass
 Warmup Convergence Information,THERMAL ZONE 13,SizingPeriod: SAN FRANCISCO INTL AP ANN HUM_N 99% CONDNS DP=>MCDB,2.3044632487E-003,1.2476303707E-005,Pass,Pass,5.5005495545E-003,2.5155266516E-005,Pass,Pass
 Warmup Convergence Information,THERMAL ZONE 5,SizingPeriod: SAN FRANCISCO INTL AP ANN HUM_N 99% CONDNS DP=>MCDB,2.9189503056E-003,1.0449269495E-005,Pass,Pass,6.9706922456E-003,2.9254893278E-005,Pass,Pass
 Warmup Convergence Information,THERMAL ZONE 8,SizingPeriod: SAN FRANCISCO INTL AP ANN HUM_N 99% CONDNS DP=>MCDB,1.1683784655E-005,9.3779477333E-006,Pass,Pass,2.1534561253E-005,1.6050139387E-005,Pass,Pass
 Warmup Convergence Information,THERMAL ZONE 3,SizingPeriod: SAN FRANCISCO INTL AP ANN HUM_N 99% CONDNS DP=>MCDB,1.6576697472E-003,1.8644770607E-003,Pass,Pass,1.6664760202E-003,2.4358919831E-003,Pass,Pass
 Warmup Convergence Information,THERMAL ZONE 11,SizingPeriod: SAN FRANCISCO INTL AP ANN HUM_N 99% CONDNS DP=>MCDB,2.6702860123E-003,1.2839503551E-005,Pass,Pass,5.5018067973E-003,2.2768631054E-005,Pass,Pass
 Warmup Convergence Information,THERMAL ZONE 4,SizingPeriod: SAN FRANCISCO INTL AP ANN HUM_N 99% CONDNS DP=>MCDB,1.6826087812E-005,1.3551997864E-005,Pass,Pass,2.2579605079E-005,1.6835441971E-005,Pass,Pass
 Warmup Convergence Information,THERMAL ZONE 7,SizingPeriod: SAN FRANCISCO INTL AP ANN HUM_N 99% CONDNS DP=>MCDB,2.3654190514E-006,1.6809063862E-006,Pass,Pass,2.2892107998E-005,1.7173415499E-005,Pass,Pass
 Warmup Convergence Information,THERMAL ZONE 14,SizingPeriod: SAN FRANCISCO INTL AP ANN HUM_N 99% CONDNS DP=>MCDB,2.2419010805E-003,1.4653095000E-003,Pass,Pass,4.6180719668E-003,2.5238598529E-003,Pass,Pass
 Warmup Convergence Information,THERMAL ZONE 12,SizingPeriod: SAN FRANCISCO INTL AP ANN HUM_N 99% CONDNS DP=>MCDB,4.8093835074E-004,8.2693203339E-004,Pass,Pass,5.0227609560E-004,1.0716786850E-003,Pass,Pass
 Warmup Convergence Information,THERMAL ZONE 6,SizingPeriod: SAN FRANCISCO INTL AP ANN HUM_N 99% CONDNS DP=>MCDB,1.9674445678E-003,1.2503353338E-003,Pass,Pass,2.3505208937E-003,1.8964610512E-003,Pass,Pass
 Warmup Convergence Information,THERMAL ZONE 10,SizingPeriod: SAN FRANCISCO INTL AP ANN HUM_N 99% CONDNS DP=>MCDB,2.3701321924E-003,8.7763791320E-004,Pass,Pass,5.2871681040E-003,1.1793737725E-003,Pass,Pass
 Warmup Convergence Information,THERMAL ZONE 17,SizingPeriod: SAN FRANCISCO INTL AP ANN HUM_N 99% CONDNS DP=>MCDB,1.1242336735E-005,8.4806760372E-006,Pass,Pass,1.6847604559E-005,1.2663101981E-005,Pass,Pass
 Warmup Convergence Information,THERMAL ZONE 19,SizingPeriod: SAN FRANCISCO INTL AP ANN HUM_N 99% CONDNS DP=>MCDB,2.2889534149E-003,1.2351041482E-005,Pass,Pass,5.4645900003E-003,2.4643021309E-005,Pass,Pass
 Warmup Convergence Information,THERMAL ZONE 2,SizingPeriod: SAN FRANCISCO INTL AP ANN HUM_N 99% CONDNS DP=>MCDB,6.2285436565E-004,1.7606152253E-004,Pass,Pass,4.7694771110E-003,1.3341303639E-003,Pass,Pass
 Warmup Convergence Information,THERMAL ZONE 20,SizingPeriod: SAN FRANCISCO INTL AP ANN HUM_N 99% CONDNS DP=>MCDB,1.6783566314E-005,1.3496311562E-005,Pass,Pass,2.2520206910E-005,1.6788809919E-005,Pass,Pass
Environment,SAN FRANCISCO INTL AP ANN HUM_N 99.6% CONDNS DP=>MCDB,SizingPeriod:DesignDay,01/21,01/21,WinterDesignDay,1,N/A,N/A,N/A,N/A,N/A,N/A
Environment:Daylight Saving,No,SizingPeriod:DesignDay
Environment:Design Day Data,10.70,0.00,DefaultMultipliers,101301,150,2.2,0.00,No ,No 
Environment:Design_Day_Misc, 21,1229.0,0.1415,5.7310E-002,1.0,-11.15,-20.1,ASHRAEClearSky
Environment:WarmupDays,  6
 Warmup Convergence Information,THERMAL ZONE 15,SizingPeriod: SAN FRANCISCO INTL AP ANN HUM_N 99.6% CONDNS DP=>MCDB,3.4668740516E-006,2.5845496922E-006,Pass,Pass,1.2387558441E-005,9.3889896114E-006,Pass,Pass
 Warmup Convergence Information,THERMAL ZONE 1,SizingPeriod: SAN FRANCISCO INTL AP ANN HUM_N 99.6% CONDNS DP=>MCDB,1.0168466791E-005,7.5437487287E-006,Pass,Pass,1.2289464438E-005,9.3039835928E-006,Pass,Pass
 Warmup Convergence Information,THERMAL ZONE 18,SizingPeriod: SAN FRANCISCO INTL AP ANN HUM_N 99.6% CONDNS DP=>MCDB,2.9535655444E-003,1.1036147280E-003,Pass,Pass,3.5447360832E-003,2.0214266048E-003,Pass,Pass
 Warmup Convergence Information,THERMAL ZONE 9,SizingPeriod: SAN FRANCISCO INTL AP ANN HUM_N 99.6% CONDNS DP=>MCDB,1.7817321192E-006,1.1756185758E-006,Pass,Pass,1.3222221176E-005,9.9827941676E-006,Pass,Pass
 Warmup Convergence Information,THERMAL ZONE 16,SizingPeriod: SAN FRANCISCO INTL AP ANN HUM_N 99.6% CONDNS DP=>MCDB,9.1048237533E-006,6.8732869636E-006,Pass,Pass,1.0602374798E-005,8.0370387424E-006,Pass,Pass
 Warmup Convergence Information,THERMAL ZONE 13,SizingPeriod: SAN FRANCISCO INTL AP ANN HUM_N 99.6% CONDNS DP=>MCDB,7.2231330748E-006,5.4267196934E-006,Pass,Pass,1.2183718642E-005,9.2166423964E-006,Pass,Pass
 Warmup Convergence Information,THERMAL ZONE 5,SizingPeriod: SAN FRANCISCO INTL AP ANN HUM_N 99.6% CONDNS DP=>MCDB,2.8823835863E-003,6.6586789259E-006,Pass,Pass,6.6259209875E-003,2.3760473421E-005,Pass,Pass
 Warmup Convergence Information,THERMAL ZONE 8,SizingPeriod: SAN FRANCISCO INTL AP ANN HUM_N 99.6% CONDNS DP=>MCDB,1.9052788082E-003,1.3716569132E-003,Pass,Pass,2.4449330149E-003,2.2090152230E-003,Pass,Pass
 Warmup Convergence Information,THERMAL ZONE 3,SizingPeriod: SAN FRANCISCO INTL AP ANN HUM_N 99.6% CONDNS DP=>MCDB,7.2340923407E-006,5.4634209096E-006,Pass,Pass,1.0371992745E-005,7.8689432724E-006,Pass,Pass
 Warmup Convergence Information,THERMAL ZONE 11,SizingPeriod: SAN FRANCISCO INTL AP ANN HUM_N 99.6% CONDNS DP=>MCDB,2.6328593346E-003,7.9163249937E-006,Pass,Pass,5.2304210307E-003,1.6694887293E-005,Pass,Pass
 Warmup Convergence Information,THERMAL ZONE 4,SizingPeriod: SAN FRANCISCO INTL AP ANN HUM_N 99.6% CONDNS DP=>MCDB,1.0102478617E-005,7.5898080634E-006,Pass,Pass,1.2278911068E-005,9.3041934632E-006,Pass,Pass
 Warmup Convergence Information,THERMAL ZONE 7,SizingPeriod: SAN FRANCISCO INTL AP ANN HUM_N 99.6% CONDNS DP=>MCDB,2.8145957187E-006,2.1833975667E-006,Pass,Pass,1.3024502943E-005,9.8144405862E-006,Pass,Pass
 Warmup Convergence Information,THERMAL ZONE 14,SizingPeriod: SAN FRANCISCO INTL AP ANN HUM_N 99.6% CONDNS DP=>MCDB,2.4871028084E-003,1.6274230216E-003,Pass,Pass,5.1249804458E-003,1.7698777243E-003,Pass,Pass
 Warmup Convergence Information,THERMAL ZONE 12,SizingPeriod: SAN FRANCISCO INTL AP ANN HUM_N 99.6% CONDNS DP=>MCDB,9.9579463114E-004,1.6307761884E-003,Pass,Pass,1.0517627820E-003,2.1489859230E-003,Pass,Pass
 Warmup Convergence Information,THERMAL ZONE 6,SizingPeriod: SAN FRANCISCO INTL AP ANN HUM_N 99.6% CONDNS DP=>MCDB,2.0249915123E-003,1.3864295568E-003,Pass,Pass,2.0700884221E-003,1.8541440716E-003,Pass,Pass
 Warmup Convergence Information,THERMAL ZONE 10,SizingPeriod: SAN FRANCISCO INTL AP ANN HUM_N 99.6% CONDNS DP=>MCDB,2.8707093428E-003,1.3010777196E-003,Pass,Pass,3.7649527582E-003,2.5944730245E-003,Pass,Pass
 Warmup Convergence Information,THERMAL ZONE 17,SizingPeriod: SAN FRANCISCO INTL AP ANN HUM_N 99.6% CONDNS DP=>MCDB,1.8112369068E-003,7.5651650022E-006,Pass,Pass,3.6000303505E-003,1.1044364949E-005,Pass,Pass
 Warmup Convergence Information,THERMAL ZONE 19,SizingPeriod: SAN FRANCISCO INTL AP ANN HUM_N 99.6% CONDNS DP=>MCDB,2.3060492962E-003,4.8511512037E-004,Pass,Pass,4.8178358396E-003,1.1782041163E-003,Pass,Pass
 Warmup Convergence Information,THERMAL ZONE 2,SizingPeriod: SAN FRANCISCO INTL AP ANN HUM_N 99.6% CONDNS DP=>MCDB,2.2650935947E-006,1.5829518429E-006,Pass,Pass,1.3187267537E-005,9.8310625239E-006,Pass,Pass
 Warmup Convergence Information,THERMAL ZONE 20,SizingPeriod: SAN FRANCISCO INTL AP ANN HUM_N 99.6% CONDNS DP=>MCDB,1.0124763241E-005,7.5891670994E-006,Pass,Pass,1.2287752847E-005,9.3151147022E-006,Pass,Pass
Environment,RUN PERIOD 1,WeatherFileRunPeriod,01/01,12/31,Thursday,365,Use RunPeriod Specified Day,Yes,Yes,No ,Yes,Yes
Environment:Daylight Saving,Yes,InputFile,03/08,11/01
Environment:WarmupDays,  6
 Warmup Convergence Information,THERMAL ZONE 15,RunPeriod: RUN PERIOD 1,1.1793262950E-002,1.2028939134E-002,Pass,Pass,4.6214386148E-003,6.6751957376E-003,Pass,Pass
 Warmup Convergence Information,THERMAL ZONE 1,RunPeriod: RUN PERIOD 1,9.2351074036E-002,0.1776605292,Pass,Pass,0.7232795481,4.9595934603,Pass,Pass
 Warmup Convergence Information,THERMAL ZONE 18,RunPeriod: RUN PERIOD 1,3.8883433642E-003,7.3095189525E-003,Pass,Pass,2.2583955098E-002,1.9069313413E-002,Pass,Pass
 Warmup Convergence Information,THERMAL ZONE 9,RunPeriod: RUN PERIOD 1,1.1820949271E-004,1.1559857461E-004,Pass,Pass,0.2589197461,0.7924255108,Pass,Pass
 Warmup Convergence Information,THERMAL ZONE 16,RunPeriod: RUN PERIOD 1,9.4389488462E-003,3.1387977132E-002,Pass,Pass,0.3124359212,1.9832065742,Pass,Pass
 Warmup Convergence Information,THERMAL ZONE 13,RunPeriod: RUN PERIOD 1,4.9112411330E-003,9.4265223791E-003,Pass,Pass,2.6315962438E-002,2.3445222418E-002,Pass,Pass
 Warmup Convergence Information,THERMAL ZONE 5,RunPeriod: RUN PERIOD 1,8.4202210995E-002,0.1256123004,Pass,Pass,0.2586411494,0.8988395368,Pass,Pass
 Warmup Convergence Information,THERMAL ZONE 8,RunPeriod: RUN PERIOD 1,6.3101576124E-003,1.2257968730E-002,Pass,Pass,2.4866427413E-002,2.2933925357E-002,Pass,Pass
 Warmup Convergence Information,THERMAL ZONE 3,RunPeriod: RUN PERIOD 1,8.4346751104E-002,0.1280024098,Pass,Pass,0.9631616468,7.2856943367,Pass,Pass
 Warmup Convergence Information,THERMAL ZONE 11,RunPeriod: RUN PERIOD 1,1.4304162843E-003,1.1025112998E-003,Pass,Pass,0.9413825418,7.6142244050,Pass,Pass
 Warmup Convergence Information,THERMAL ZONE 4,RunPeriod: RUN PERIOD 1,1.6486414373E-002,3.7494375928E-002,Pass,Pass,0.2328174750,0.9360745970,Pass,Pass
 Warmup Convergence Information,THERMAL ZONE 7,RunPeriod: RUN PERIOD 1,1.6155544259E-004,1.6146352632E-004,Pass,Pass,0.5507172608,3.7017132847,Pass,Pass
 Warmup Convergence Information,THERMAL ZONE 14,RunPeriod: RUN PERIOD 1,1.1816970504E-003,9.9175486292E-004,Pass,Pass,0.2586637120,0.9658353912,Pass,Pass
 Warmup Convergence Information,THERMAL ZONE 12,RunPeriod: RUN PERIOD 1,8.4066326437E-002,0.1279195384,Pass,Pass,0.1909228229,0.4675096357,Pass,Pass
 Warmup Convergence Information,THERMAL ZONE 6,RunPeriod: RUN PERIOD 1,4.1576438720E-003,1.3905209485E-002,Pass,Pass,0.2279943976,0.6843168477,Pass,Pass
 Warmup Convergence Information,THERMAL ZONE 10,RunPeriod: RUN PERIOD 1,2.2925639663E-003,5.3803834012E-003,Pass,Pass,0.1759915261,0.4685749814,Pass,Pass
 Warmup Convergence Information,THERMAL ZONE 17,RunPeriod: RUN PERIOD 1,1.5776821175E-003,1.1375759351E-003,Pass,Pass,0.5657509272,3.3863890319,Pass,Pass
 Warmup Convergence Information,THERMAL ZONE 19,RunPeriod: RUN PERIOD 1,2.7323754841E-003,7.1934957077E-003,Pass,Pass,0.3060126724,1.2526356236,Pass,Pass
 Warmup Convergence Information,THERMAL ZONE 2,RunPeriod: RUN PERIOD 1,3.1311169784E-004,2.7513091489E-004,Pass,Pass,3.0987619363E-002,2.2377070709E-002,Pass,Pass
 Warmup Convergence Information,THERMAL ZONE 20,RunPeriod: RUN PERIOD 1,1.4985561225E-002,2.2655047386E-002,Pass,Pass,1.4776298408E-002,1.8556669182E-002,Pass,Pass
! <Program Control Information:Threads/Parallel Sims>, Threading Supported,Maximum Number of Threads, Env Set Threads (OMP_NUM_THREADS), EP Env Set Threads (EP_OMP_NUM_THREADS), IDF Set Threads, Number of Threads Used (Interior Radiant Exchange), Number Nominal Surfaces, Number Parallel Sims
Program Control:Threads/Parallel Sims, Yes,1, Not Set, Not Set, 1, 1, 136, N/A
End of Data
