Program Version,EnergyPlus-Linux-OMP-32 7.2.0.006, YMD=2013.06.07 16:28
! <Version>, Version ID
 Version, 7.2
! <Timesteps per Hour>, #TimeSteps, Minutes per TimeStep {minutes}
 Timesteps per Hour,  4, 15
! <System Convergence Limits>, Minimum System TimeStep {minutes}, Max HVAC Iterations,  Minimum Plant Iterations, Maximum Plant Iterations
 System Convergence Limits, 1, 20, 2, 8
! <Simulation Control>, Do Zone Sizing, Do System Sizing, Do Plant Sizing, Do Design Days, Do Weather Simulation
 Simulation Control, Yes, Yes, Yes, Yes, Yes
! <Output Reporting Tolerances>, Tolerance for Time Heating Setpoint Not Met, Tolerance for Time Cooling Setpoint Not Met
 Output Reporting Tolerances, 0.200, 0.200, 
! <Site:GroundTemperature:BuildingSurface>, Months From Jan to Dec {Deg C}
 Site:GroundTemperature:BuildingSurface,  18.00,  18.00,  18.00,  18.00,  18.00,  18.00,  18.00,  18.00,  18.00,  18.00,  18.00,  18.00
! <Site:GroundTemperature:FCfactorMethod>, Months From Jan to Dec {Deg C}
 Site:GroundTemperature:FCfactorMethod,  -1.89,  -3.06,  -0.99,   2.23,  10.68,  17.20,  21.60,  22.94,  20.66,  15.60,   8.83,   2.56
! <Site:GroundTemperature:Shallow>, Months From Jan to Dec {Deg C}
 Site:GroundTemperature:Shallow,  13.00,  13.00,  13.00,  13.00,  13.00,  13.00,  13.00,  13.00,  13.00,  13.00,  13.00,  13.00
! <Site:GroundTemperature:Deep>, Months From Jan to Dec {Deg C}
 Site:GroundTemperature:Deep,  16.00,  16.00,  16.00,  16.00,  16.00,  16.00,  16.00,  16.00,  16.00,  16.00,  16.00,  16.00
! <Site:GroundReflectance>, Months From Jan to Dec {dimensionless}
 Site:GroundReflectance,  0.20,  0.20,  0.20,  0.20,  0.20,  0.20,  0.20,  0.20,  0.20,  0.20,  0.20,  0.20
! <Site:GroundReflectance:SnowModifier>, Normal, Daylighting {dimensionless}
 Site:GroundReflectance:SnowModifier,   1.000,   1.000
! <Site:GroundReflectance:Snow>, Months From Jan to Dec {dimensionless}
 Site:GroundReflectance:Snow,  0.20,  0.20,  0.20,  0.20,  0.20,  0.20,  0.20,  0.20,  0.20,  0.20,  0.20,  0.20
! <Site:GroundReflectance:Snow:Daylighting>, Months From Jan to Dec {dimensionless}
 Site:GroundReflectance:Snow:Daylighting,  0.20,  0.20,  0.20,  0.20,  0.20,  0.20,  0.20,  0.20,  0.20,  0.20,  0.20,  0.20
! <Environment:Weather Station>,Wind Sensor Height Above Ground {m},Wind Speed Profile Exponent {},Wind Speed Profile Boundary Layer Thickness {m},Air Temperature Sensor Height Above Ground {m},Wind Speed Modifier Coefficient [Internal],Temperature Modifier Coefficient [Internal]
Environment:Weather Station,10.000,0.140,270.000,1.500,1.586,9.750E-003
! <Site:Location>, Location Name, Latitude {N+/S- Deg}, Longitude {E+/W- Deg},  Time Zone Number {GMT+/-}, Elevation {m},  Standard Pressure at Elevation {Pa}, Standard RhoAir at Elevation
Site:Location,Chicago Ohare Intl Ap IL USA TMY3 WMO#=725300,41.98,-87.92,-6.00,201.00,98934,1.1759
! <Building Information>, Building Name,North Axis {deg},Terrain,  Loads Convergence Tolerance Value,Temperature Convergence Tolerance Value,  Solar Distribution,Maximum Number of Warmup Days,Minimum Number of Warmup Days
 Building Information,Building 1,0.000,Suburbs,4.00000E-002,0.40000,FullExterior,25,6
! <Inside Convection Algorithm>, Algorithm {Simple | TARP | CeilingDiffuser | AdaptiveConvectionAlgorithm}
Inside Convection Algorithm,TARP
! <Outside Convection Algorithm>, Algorithm {SimpleCombined | TARP | MoWitt | DOE-2 | AdaptiveConvectionAlgorithm}
Outside Convection Algorithm,DOE-2
! <Sky Radiance Distribution>, Value {Anisotropic}
Sky Radiance Distribution,Anisotropic
! <Zone Air Solution Algorithm>, Value {ThirdOrderBackwardDifference | AnalyticalSolution | EulerMethod}
 Zone Air Solution Algorithm, ThirdOrderBackwardDifference
! <Zone Air Contaminant Balance Simulation>, Simulation {Yes/No}, Carbon Dioxide Concentration
 Zone Air Carbon Dioxide Balance Simulation, No,N/A
! <Zone Air Contaminant Balance Simulation>, Simulation {Yes/No}, Generic Contaminant Concentration
 Zone Air Generic Contaminant Balance Simulation, No,N/A
! <Environment:Site Atmospheric Variation>,Wind Speed Profile Exponent {},Wind Speed Profile Boundary Layer Thickness {m},Air Temperature Gradient Coefficient {K/m}
Environment:Site Atmospheric Variation,0.220,370.000,6.500000E-003
! <SurfaceGeometry>,Starting Corner,Vertex Input Direction,Coordinate System,Daylight Reference Point Coordinate System,Rectangular (Simple) Surface Coordinate System
 Surface Geometry,UpperLeftCorner,Counterclockwise,RelativeCoordinateSystem,RelativeCoordinateSystem,RelativeToZoneOrigin
! <Surface Heat Transfer Algorithm>, Value {CTF - ConductionTransferFunction | EMPD - MoisturePenetrationDepthConductionTransferFunction | CondFD - ConductionFiniteDifference | HAMT - CombinedHeatAndMoistureFiniteElement} - Description,Inside Surface Max Temperature Limit{C}, Surface Convection Coefficient Lower Limit {W/m2-K}, Surface Convection Coefficient Upper Limit {W/m2-K}
Surface Heat Transfer Algorithm, CTF - ConductionTransferFunction,200,0.10,1000.0
! <Shading Summary>, Number of Fixed Detached Shades, Number of Building Detached Shades, Number of Attached Shades
 Shading Summary,0,0,0
! <Zone Summary>, Number of Zones, Number of Zone Surfaces, Number of SubSurfaces
 Zone Summary,25,170,20
! <Zone Information>,Zone Name,North Axis {deg},Origin X-Coordinate {m},Origin Y-Coordinate {m},Origin Z-Coordinate {m},Centroid X-Coordinate {m},Centroid Y-Coordinate {m},Centroid Z-Coordinate {m},Type,Zone Multiplier,Zone List Multiplier,Minimum X {m},Maximum X {m},Minimum Y {m},Maximum Y {m},Minimum Z {m},Maximum Z {m},Ceiling Height {m},Volume {m3},Zone Inside Convection Algorithm {Simple-Detailed-CeilingDiffuser-TrombeWall},Zone Outside Convection Algorithm {Simple-Detailed-Tarp-MoWitt-DOE-2-BLAST}, Floor Area {m2},Exterior Gross Wall Area {m2},Exterior Net Wall Area {m2},Exterior Window Area {m2}, Number of Surfaces, Number of SubSurfaces, Number of Shading SubSurfaces,  Part of Total Building Area
 Zone Information, THERMAL ZONE 24,0.0,3.00,3.00,0.00,6.61,6.61,2.00,1,1,1,3.00,10.23,3.00,10.23,0.00,4.00,4.00,209.02,TARP,DOE-2,52.25,0.00,0.00,0.00,6,0,0,Yes
 Zone Information, THERMAL ZONE 9,0.0,0.00,0.00,0.00,1.25,6.61,2.00,1,1,1,0.00,3.00,0.00,13.23,0.00,4.00,4.00,122.75,TARP,DOE-2,30.69,52.92,46.57,6.35,6,1,0,Yes
 Zone Information, THERMAL ZONE 16,0.0,0.00,0.00,16.00,6.61,1.25,18.00,1,1,1,0.00,13.23,0.00,3.00,16.00,20.00,4.00,122.75,TARP,DOE-2,30.69,52.92,46.57,6.35,6,1,0,Yes
 Zone Information, THERMAL ZONE 21,0.0,3.00,10.23,4.00,6.61,11.98,6.00,1,1,1,0.00,13.23,10.23,13.23,4.00,8.00,4.00,122.75,TARP,DOE-2,30.69,52.92,46.57,6.35,6,1,0,Yes
 Zone Information, THERMAL ZONE 4,0.0,0.00,0.00,8.00,1.25,6.61,10.00,1,1,1,0.00,3.00,0.00,13.23,8.00,12.00,4.00,122.75,TARP,DOE-2,30.69,52.92,46.57,6.35,6,1,0,Yes
 Zone Information, THERMAL ZONE 17,0.0,10.23,3.00,12.00,11.98,6.61,14.00,1,1,1,10.23,13.23,0.00,13.23,12.00,16.00,4.00,122.75,TARP,DOE-2,30.69,52.92,46.57,6.35,6,1,0,Yes
 Zone Information, THERMAL ZONE 20,0.0,0.00,0.00,4.00,1.25,6.61,6.00,1,1,1,0.00,3.00,0.00,13.23,4.00,8.00,4.00,122.75,TARP,DOE-2,30.69,52.92,46.57,6.35,6,1,0,Yes
 Zone Information, THERMAL ZONE 2,0.0,10.23,3.00,4.00,11.98,6.61,6.00,1,1,1,10.23,13.23,0.00,13.23,4.00,8.00,4.00,122.75,TARP,DOE-2,30.69,52.92,46.57,6.35,6,1,0,Yes
 Zone Information, THERMAL ZONE 18,0.0,10.23,3.00,8.00,11.98,6.61,10.00,1,1,1,10.23,13.23,0.00,13.23,8.00,12.00,4.00,122.75,TARP,DOE-2,30.69,52.92,46.57,6.35,6,1,0,Yes
 Zone Information, THERMAL ZONE 8,0.0,3.00,3.00,8.00,6.61,6.61,10.00,1,1,1,3.00,10.23,3.00,10.23,8.00,12.00,4.00,209.02,TARP,DOE-2,52.25,0.00,0.00,0.00,6,0,0,Yes
 Zone Information, THERMAL ZONE 22,0.0,3.00,3.00,4.00,6.61,6.61,6.00,1,1,1,3.00,10.23,3.00,10.23,4.00,8.00,4.00,209.02,TARP,DOE-2,52.25,0.00,0.00,0.00,6,0,0,Yes
 Zone Information, THERMAL ZONE 3,0.0,3.00,10.23,12.00,6.61,11.98,14.00,1,1,1,0.00,13.23,10.23,13.23,12.00,16.00,4.00,122.75,TARP,DOE-2,30.69,52.92,46.57,6.35,6,1,0,Yes
 Zone Information, THERMAL ZONE 12,0.0,3.00,10.23,8.00,6.61,11.98,10.00,1,1,1,0.00,13.23,10.23,13.23,8.00,12.00,4.00,122.75,TARP,DOE-2,30.69,52.92,46.57,6.35,6,1,0,Yes
 Zone Information, THERMAL ZONE 7,0.0,0.00,0.00,4.00,6.61,1.25,6.00,1,1,1,0.00,13.23,0.00,3.00,4.00,8.00,4.00,122.75,TARP,DOE-2,30.69,52.92,46.57,6.35,6,1,0,Yes
 Zone Information, THERMAL ZONE 19,0.0,3.00,10.23,0.00,6.61,11.98,2.00,1,1,1,0.00,13.23,10.23,13.23,0.00,4.00,4.00,122.75,TARP,DOE-2,30.69,52.92,46.57,6.35,6,1,0,Yes
 Zone Information, THERMAL ZONE 11,0.0,10.23,3.00,16.00,11.98,6.61,18.00,1,1,1,10.23,13.23,0.00,13.23,16.00,20.00,4.00,122.75,TARP,DOE-2,30.69,52.92,46.57,6.35,6,1,0,Yes
 Zone Information, THERMAL ZONE 25,0.0,0.00,0.00,0.00,6.61,1.25,2.00,1,1,1,0.00,13.23,0.00,3.00,0.00,4.00,4.00,122.75,TARP,DOE-2,30.69,52.92,46.57,6.35,6,1,0,Yes
 Zone Information, THERMAL ZONE 15,0.0,0.00,0.00,8.00,6.61,1.25,10.00,1,1,1,0.00,13.23,0.00,3.00,8.00,12.00,4.00,122.75,TARP,DOE-2,30.69,52.92,46.57,6.35,6,1,0,Yes
 Zone Information, THERMAL ZONE 5,0.0,10.23,3.00,0.00,11.98,6.61,2.00,1,1,1,10.23,13.23,0.00,13.23,0.00,4.00,4.00,122.75,TARP,DOE-2,30.69,52.92,46.57,6.35,6,1,0,Yes
 Zone Information, THERMAL ZONE 10,0.0,0.00,0.00,12.00,1.25,6.61,14.00,1,1,1,0.00,3.00,0.00,13.23,12.00,16.00,4.00,122.75,TARP,DOE-2,30.69,52.92,46.57,6.35,6,1,0,Yes
 Zone Information, THERMAL ZONE 13,0.0,3.00,3.00,16.00,6.61,6.61,18.00,1,1,1,3.00,10.23,3.00,10.23,16.00,20.00,4.00,209.02,TARP,DOE-2,52.25,0.00,0.00,0.00,6,0,0,Yes
 Zone Information, THERMAL ZONE 1,0.0,3.00,10.23,16.00,6.61,11.98,18.00,1,1,1,0.00,13.23,10.23,13.23,16.00,20.00,4.00,122.75,TARP,DOE-2,30.69,52.92,46.57,6.35,6,1,0,Yes
 Zone Information, THERMAL ZONE 6,0.0,0.00,0.00,16.00,1.25,6.61,18.00,1,1,1,0.00,3.00,0.00,13.23,16.00,20.00,4.00,122.75,TARP,DOE-2,30.69,52.92,46.57,6.35,6,1,0,Yes
 Zone Information, THERMAL ZONE 23,0.0,3.00,3.00,12.00,6.61,6.61,14.00,1,1,1,3.00,10.23,3.00,10.23,12.00,16.00,4.00,209.02,TARP,DOE-2,52.25,0.00,0.00,0.00,6,0,0,Yes
 Zone Information, THERMAL ZONE 14,0.0,0.00,0.00,12.00,6.61,1.25,14.00,1,1,1,0.00,13.23,0.00,3.00,12.00,16.00,4.00,122.75,TARP,DOE-2,30.69,52.92,46.57,6.35,6,1,0,Yes
! <Zone Internal Gains/Equipment Information - Nominal>,Zone Name, Floor Area {m2},# Occupants,Area per Occupant {m2/person},Occupant per Area {person/m2},Interior Lighting {W/m2},Electric Load {W/m2},Gas Load {W/m2},Other Load {W/m2},Hot Water Eq {W/m2},Steam Equipment {W/m2},Sum Loads per Area {W/m2},Outdoor Controlled Baseboard Heat
 Zone Internal Gains, THERMAL ZONE 24,52.25,2.8,18.581,5.382E-002,10.764,10.764,0.000,0.000,0.000,0.000,21.528,No
 Zone Internal Gains, THERMAL ZONE 9,30.69,1.7,18.581,5.382E-002,10.764,10.764,0.000,0.000,0.000,0.000,21.528,No
 Zone Internal Gains, THERMAL ZONE 16,30.69,1.7,18.581,5.382E-002,10.764,10.764,0.000,0.000,0.000,0.000,21.528,No
 Zone Internal Gains, THERMAL ZONE 21,30.69,1.7,18.581,5.382E-002,10.764,10.764,0.000,0.000,0.000,0.000,21.528,No
 Zone Internal Gains, THERMAL ZONE 4,30.69,1.7,18.581,5.382E-002,10.764,10.764,0.000,0.000,0.000,0.000,21.528,No
 Zone Internal Gains, THERMAL ZONE 17,30.69,1.7,18.581,5.382E-002,10.764,10.764,0.000,0.000,0.000,0.000,21.528,No
 Zone Internal Gains, THERMAL ZONE 20,30.69,1.7,18.581,5.382E-002,10.764,10.764,0.000,0.000,0.000,0.000,21.528,No
 Zone Internal Gains, THERMAL ZONE 2,30.69,1.7,18.581,5.382E-002,10.764,10.764,0.000,0.000,0.000,0.000,21.528,No
 Zone Internal Gains, THERMAL ZONE 18,30.69,1.7,18.581,5.382E-002,10.764,10.764,0.000,0.000,0.000,0.000,21.528,No
 Zone Internal Gains, THERMAL ZONE 8,52.25,2.8,18.581,5.382E-002,10.764,10.764,0.000,0.000,0.000,0.000,21.528,No
 Zone Internal Gains, THERMAL ZONE 22,52.25,2.8,18.581,5.382E-002,10.764,10.764,0.000,0.000,0.000,0.000,21.528,No
 Zone Internal Gains, THERMAL ZONE 3,30.69,1.7,18.581,5.382E-002,10.764,10.764,0.000,0.000,0.000,0.000,21.528,No
 Zone Internal Gains, THERMAL ZONE 12,30.69,1.7,18.581,5.382E-002,10.764,10.764,0.000,0.000,0.000,0.000,21.528,No
 Zone Internal Gains, THERMAL ZONE 7,30.69,1.7,18.581,5.382E-002,10.764,10.764,0.000,0.000,0.000,0.000,21.528,No
 Zone Internal Gains, THERMAL ZONE 19,30.69,1.7,18.581,5.382E-002,10.764,10.764,0.000,0.000,0.000,0.000,21.528,No
 Zone Internal Gains, THERMAL ZONE 11,30.69,1.7,18.581,5.382E-002,10.764,10.764,0.000,0.000,0.000,0.000,21.528,No
 Zone Internal Gains, THERMAL ZONE 25,30.69,1.7,18.581,5.382E-002,10.764,10.764,0.000,0.000,0.000,0.000,21.528,No
 Zone Internal Gains, THERMAL ZONE 15,30.69,1.7,18.581,5.382E-002,10.764,10.764,0.000,0.000,0.000,0.000,21.528,No
 Zone Internal Gains, THERMAL ZONE 5,30.69,1.7,18.581,5.382E-002,10.764,10.764,0.000,0.000,0.000,0.000,21.528,No
 Zone Internal Gains, THERMAL ZONE 10,30.69,1.7,18.581,5.382E-002,10.764,10.764,0.000,0.000,0.000,0.000,21.528,No
 Zone Internal Gains, THERMAL ZONE 13,52.25,2.8,18.581,5.382E-002,10.764,10.764,0.000,0.000,0.000,0.000,21.528,No
 Zone Internal Gains, THERMAL ZONE 1,30.69,1.7,18.581,5.382E-002,10.764,10.764,0.000,0.000,0.000,0.000,21.528,No
 Zone Internal Gains, THERMAL ZONE 6,30.69,1.7,18.581,5.382E-002,10.764,10.764,0.000,0.000,0.000,0.000,21.528,No
 Zone Internal Gains, THERMAL ZONE 23,52.25,2.8,18.581,5.382E-002,10.764,10.764,0.000,0.000,0.000,0.000,21.528,No
 Zone Internal Gains, THERMAL ZONE 14,30.69,1.7,18.581,5.382E-002,10.764,10.764,0.000,0.000,0.000,0.000,21.528,No
! <People Internal Gains - Nominal>,Name,Schedule Name,Zone Name,Zone Floor Area {m2},# Zone Occupants,Number of People {},People/Floor Area {person/m2},Floor Area per person {m2/person},Fraction Radiant,Fraction Convected,Sensible Fraction Calculation,Activity level,ASHRAE 55 Warnings,Carbon Dioxide Generation Rate 
 People Internal Gains, THERMAL ZONE 1 ASHRAE_90.1-2004 CLIMATEZONE 1-8 SMALLOFFICE WHOLEBUILDING PEOPLE,SMALL OFFICE_BLDG_OCC,THERMAL ZONE 1,30.69,1.7,1.7,5.382E-002,18.581,0.300,0.700,AutoCalculate,SMALL OFFICE_ACTIVITY,No,3.8200E-008
 People Internal Gains, THERMAL ZONE 10 ASHRAE_90.1-2004 CLIMATEZONE 1-8 SMALLOFFICE WHOLEBUILDING PEOPLE,SMALL OFFICE_BLDG_OCC,THERMAL ZONE 10,30.69,1.7,1.7,5.382E-002,18.581,0.300,0.700,AutoCalculate,SMALL OFFICE_ACTIVITY,No,3.8200E-008
 People Internal Gains, THERMAL ZONE 11 ASHRAE_90.1-2004 CLIMATEZONE 1-8 SMALLOFFICE WHOLEBUILDING PEOPLE,SMALL OFFICE_BLDG_OCC,THERMAL ZONE 11,30.69,1.7,1.7,5.382E-002,18.581,0.300,0.700,AutoCalculate,SMALL OFFICE_ACTIVITY,No,3.8200E-008
 People Internal Gains, THERMAL ZONE 12 ASHRAE_90.1-2004 CLIMATEZONE 1-8 SMALLOFFICE WHOLEBUILDING PEOPLE,SMALL OFFICE_BLDG_OCC,THERMAL ZONE 12,30.69,1.7,1.7,5.382E-002,18.581,0.300,0.700,AutoCalculate,SMALL OFFICE_ACTIVITY,No,3.8200E-008
 People Internal Gains, THERMAL ZONE 13 ASHRAE_90.1-2004 CLIMATEZONE 1-8 SMALLOFFICE WHOLEBUILDING PEOPLE,SMALL OFFICE_BLDG_OCC,THERMAL ZONE 13,52.25,2.8,2.8,5.382E-002,18.581,0.300,0.700,AutoCalculate,SMALL OFFICE_ACTIVITY,No,3.8200E-008
 People Internal Gains, THERMAL ZONE 14 ASHRAE_90.1-2004 CLIMATEZONE 1-8 SMALLOFFICE WHOLEBUILDING PEOPLE,SMALL OFFICE_BLDG_OCC,THERMAL ZONE 14,30.69,1.7,1.7,5.382E-002,18.581,0.300,0.700,AutoCalculate,SMALL OFFICE_ACTIVITY,No,3.8200E-008
 People Internal Gains, THERMAL ZONE 15 ASHRAE_90.1-2004 CLIMATEZONE 1-8 SMALLOFFICE WHOLEBUILDING PEOPLE,SMALL OFFICE_BLDG_OCC,THERMAL ZONE 15,30.69,1.7,1.7,5.382E-002,18.581,0.300,0.700,AutoCalculate,SMALL OFFICE_ACTIVITY,No,3.8200E-008
 People Internal Gains, THERMAL ZONE 16 ASHRAE_90.1-2004 CLIMATEZONE 1-8 SMALLOFFICE WHOLEBUILDING PEOPLE,SMALL OFFICE_BLDG_OCC,THERMAL ZONE 16,30.69,1.7,1.7,5.382E-002,18.581,0.300,0.700,AutoCalculate,SMALL OFFICE_ACTIVITY,No,3.8200E-008
 People Internal Gains, THERMAL ZONE 17 ASHRAE_90.1-2004 CLIMATEZONE 1-8 SMALLOFFICE WHOLEBUILDING PEOPLE,SMALL OFFICE_BLDG_OCC,THERMAL ZONE 17,30.69,1.7,1.7,5.382E-002,18.581,0.300,0.700,AutoCalculate,SMALL OFFICE_ACTIVITY,No,3.8200E-008
 People Internal Gains, THERMAL ZONE 18 ASHRAE_90.1-2004 CLIMATEZONE 1-8 SMALLOFFICE WHOLEBUILDING PEOPLE,SMALL OFFICE_BLDG_OCC,THERMAL ZONE 18,30.69,1.7,1.7,5.382E-002,18.581,0.300,0.700,AutoCalculate,SMALL OFFICE_ACTIVITY,No,3.8200E-008
 People Internal Gains, THERMAL ZONE 19 ASHRAE_90.1-2004 CLIMATEZONE 1-8 SMALLOFFICE WHOLEBUILDING PEOPLE,SMALL OFFICE_BLDG_OCC,THERMAL ZONE 19,30.69,1.7,1.7,5.382E-002,18.581,0.300,0.700,AutoCalculate,SMALL OFFICE_ACTIVITY,No,3.8200E-008
 People Internal Gains, THERMAL ZONE 2 ASHRAE_90.1-2004 CLIMATEZONE 1-8 SMALLOFFICE WHOLEBUILDING PEOPLE,SMALL OFFICE_BLDG_OCC,THERMAL ZONE 2,30.69,1.7,1.7,5.382E-002,18.581,0.300,0.700,AutoCalculate,SMALL OFFICE_ACTIVITY,No,3.8200E-008
 People Internal Gains, THERMAL ZONE 20 ASHRAE_90.1-2004 CLIMATEZONE 1-8 SMALLOFFICE WHOLEBUILDING PEOPLE,SMALL OFFICE_BLDG_OCC,THERMAL ZONE 20,30.69,1.7,1.7,5.382E-002,18.581,0.300,0.700,AutoCalculate,SMALL OFFICE_ACTIVITY,No,3.8200E-008
 People Internal Gains, THERMAL ZONE 21 ASHRAE_90.1-2004 CLIMATEZONE 1-8 SMALLOFFICE WHOLEBUILDING PEOPLE,SMALL OFFICE_BLDG_OCC,THERMAL ZONE 21,30.69,1.7,1.7,5.382E-002,18.581,0.300,0.700,AutoCalculate,SMALL OFFICE_ACTIVITY,No,3.8200E-008
 People Internal Gains, THERMAL ZONE 22 ASHRAE_90.1-2004 CLIMATEZONE 1-8 SMALLOFFICE WHOLEBUILDING PEOPLE,SMALL OFFICE_BLDG_OCC,THERMAL ZONE 22,52.25,2.8,2.8,5.382E-002,18.581,0.300,0.700,AutoCalculate,SMALL OFFICE_ACTIVITY,No,3.8200E-008
 People Internal Gains, THERMAL ZONE 23 ASHRAE_90.1-2004 CLIMATEZONE 1-8 SMALLOFFICE WHOLEBUILDING PEOPLE,SMALL OFFICE_BLDG_OCC,THERMAL ZONE 23,52.25,2.8,2.8,5.382E-002,18.581,0.300,0.700,AutoCalculate,SMALL OFFICE_ACTIVITY,No,3.8200E-008
 People Internal Gains, THERMAL ZONE 24 ASHRAE_90.1-2004 CLIMATEZONE 1-8 SMALLOFFICE WHOLEBUILDING PEOPLE,SMALL OFFICE_BLDG_OCC,THERMAL ZONE 24,52.25,2.8,2.8,5.382E-002,18.581,0.300,0.700,AutoCalculate,SMALL OFFICE_ACTIVITY,No,3.8200E-008
 People Internal Gains, THERMAL ZONE 25 ASHRAE_90.1-2004 CLIMATEZONE 1-8 SMALLOFFICE WHOLEBUILDING PEOPLE,SMALL OFFICE_BLDG_OCC,THERMAL ZONE 25,30.69,1.7,1.7,5.382E-002,18.581,0.300,0.700,AutoCalculate,SMALL OFFICE_ACTIVITY,No,3.8200E-008
 People Internal Gains, THERMAL ZONE 3 ASHRAE_90.1-2004 CLIMATEZONE 1-8 SMALLOFFICE WHOLEBUILDING PEOPLE,SMALL OFFICE_BLDG_OCC,THERMAL ZONE 3,30.69,1.7,1.7,5.382E-002,18.581,0.300,0.700,AutoCalculate,SMALL OFFICE_ACTIVITY,No,3.8200E-008
 People Internal Gains, THERMAL ZONE 4 ASHRAE_90.1-2004 CLIMATEZONE 1-8 SMALLOFFICE WHOLEBUILDING PEOPLE,SMALL OFFICE_BLDG_OCC,THERMAL ZONE 4,30.69,1.7,1.7,5.382E-002,18.581,0.300,0.700,AutoCalculate,SMALL OFFICE_ACTIVITY,No,3.8200E-008
 People Internal Gains, THERMAL ZONE 5 ASHRAE_90.1-2004 CLIMATEZONE 1-8 SMALLOFFICE WHOLEBUILDING PEOPLE,SMALL OFFICE_BLDG_OCC,THERMAL ZONE 5,30.69,1.7,1.7,5.382E-002,18.581,0.300,0.700,AutoCalculate,SMALL OFFICE_ACTIVITY,No,3.8200E-008
 People Internal Gains, THERMAL ZONE 6 ASHRAE_90.1-2004 CLIMATEZONE 1-8 SMALLOFFICE WHOLEBUILDING PEOPLE,SMALL OFFICE_BLDG_OCC,THERMAL ZONE 6,30.69,1.7,1.7,5.382E-002,18.581,0.300,0.700,AutoCalculate,SMALL OFFICE_ACTIVITY,No,3.8200E-008
 People Internal Gains, THERMAL ZONE 7 ASHRAE_90.1-2004 CLIMATEZONE 1-8 SMALLOFFICE WHOLEBUILDING PEOPLE,SMALL OFFICE_BLDG_OCC,THERMAL ZONE 7,30.69,1.7,1.7,5.382E-002,18.581,0.300,0.700,AutoCalculate,SMALL OFFICE_ACTIVITY,No,3.8200E-008
 People Internal Gains, THERMAL ZONE 8 ASHRAE_90.1-2004 CLIMATEZONE 1-8 SMALLOFFICE WHOLEBUILDING PEOPLE,SMALL OFFICE_BLDG_OCC,THERMAL ZONE 8,52.25,2.8,2.8,5.382E-002,18.581,0.300,0.700,AutoCalculate,SMALL OFFICE_ACTIVITY,No,3.8200E-008
 People Internal Gains, THERMAL ZONE 9 ASHRAE_90.1-2004 CLIMATEZONE 1-8 SMALLOFFICE WHOLEBUILDING PEOPLE,SMALL OFFICE_BLDG_OCC,THERMAL ZONE 9,30.69,1.7,1.7,5.382E-002,18.581,0.300,0.700,AutoCalculate,SMALL OFFICE_ACTIVITY,No,3.8200E-008
! <Lights Internal Gains - Nominal>,Name,Schedule Name,Zone Name,Zone Floor Area {m2},# Zone Occupants,Lighting Level {W},Lights/Floor Area {W/m2},Lights per person {W/person},Fraction Return Air,Fraction Radiant,Fraction Short Wave,Fraction Convected,Fraction Replaceable,EndUse Category
 Lights Internal Gains, THERMAL ZONE 1 ASHRAE_90.1-2004 CLIMATEZONE 1-8 SMALLOFFICE WHOLEBUILDING LIGHTS,SMALL OFFICE_BLDG_LIGHT,THERMAL ZONE 1,30.69,1.7,330.304,10.764,200.000,0.000,0.000,0.000,1.000,1.000,General
 Lights Internal Gains, THERMAL ZONE 10 ASHRAE_90.1-2004 CLIMATEZONE 1-8 SMALLOFFICE WHOLEBUILDING LIGHTS,SMALL OFFICE_BLDG_LIGHT,THERMAL ZONE 10,30.69,1.7,330.304,10.764,200.000,0.000,0.000,0.000,1.000,1.000,General
 Lights Internal Gains, THERMAL ZONE 11 ASHRAE_90.1-2004 CLIMATEZONE 1-8 SMALLOFFICE WHOLEBUILDING LIGHTS,SMALL OFFICE_BLDG_LIGHT,THERMAL ZONE 11,30.69,1.7,330.304,10.764,200.000,0.000,0.000,0.000,1.000,1.000,General
 Lights Internal Gains, THERMAL ZONE 12 ASHRAE_90.1-2004 CLIMATEZONE 1-8 SMALLOFFICE WHOLEBUILDING LIGHTS,SMALL OFFICE_BLDG_LIGHT,THERMAL ZONE 12,30.69,1.7,330.304,10.764,200.000,0.000,0.000,0.000,1.000,1.000,General
 Lights Internal Gains, THERMAL ZONE 13 ASHRAE_90.1-2004 CLIMATEZONE 1-8 SMALLOFFICE WHOLEBUILDING LIGHTS,SMALL OFFICE_BLDG_LIGHT,THERMAL ZONE 13,52.25,2.8,562.467,10.764,200.000,0.000,0.000,0.000,1.000,1.000,General
 Lights Internal Gains, THERMAL ZONE 14 ASHRAE_90.1-2004 CLIMATEZONE 1-8 SMALLOFFICE WHOLEBUILDING LIGHTS,SMALL OFFICE_BLDG_LIGHT,THERMAL ZONE 14,30.69,1.7,330.304,10.764,200.000,0.000,0.000,0.000,1.000,1.000,General
 Lights Internal Gains, THERMAL ZONE 15 ASHRAE_90.1-2004 CLIMATEZONE 1-8 SMALLOFFICE WHOLEBUILDING LIGHTS,SMALL OFFICE_BLDG_LIGHT,THERMAL ZONE 15,30.69,1.7,330.304,10.764,200.000,0.000,0.000,0.000,1.000,1.000,General
 Lights Internal Gains, THERMAL ZONE 16 ASHRAE_90.1-2004 CLIMATEZONE 1-8 SMALLOFFICE WHOLEBUILDING LIGHTS,SMALL OFFICE_BLDG_LIGHT,THERMAL ZONE 16,30.69,1.7,330.304,10.764,200.000,0.000,0.000,0.000,1.000,1.000,General
 Lights Internal Gains, THERMAL ZONE 17 ASHRAE_90.1-2004 CLIMATEZONE 1-8 SMALLOFFICE WHOLEBUILDING LIGHTS,SMALL OFFICE_BLDG_LIGHT,THERMAL ZONE 17,30.69,1.7,330.304,10.764,200.000,0.000,0.000,0.000,1.000,1.000,General
 Lights Internal Gains, THERMAL ZONE 18 ASHRAE_90.1-2004 CLIMATEZONE 1-8 SMALLOFFICE WHOLEBUILDING LIGHTS,SMALL OFFICE_BLDG_LIGHT,THERMAL ZONE 18,30.69,1.7,330.304,10.764,200.000,0.000,0.000,0.000,1.000,1.000,General
 Lights Internal Gains, THERMAL ZONE 19 ASHRAE_90.1-2004 CLIMATEZONE 1-8 SMALLOFFICE WHOLEBUILDING LIGHTS,SMALL OFFICE_BLDG_LIGHT,THERMAL ZONE 19,30.69,1.7,330.304,10.764,200.000,0.000,0.000,0.000,1.000,1.000,General
 Lights Internal Gains, THERMAL ZONE 2 ASHRAE_90.1-2004 CLIMATEZONE 1-8 SMALLOFFICE WHOLEBUILDING LIGHTS,SMALL OFFICE_BLDG_LIGHT,THERMAL ZONE 2,30.69,1.7,330.304,10.764,200.000,0.000,0.000,0.000,1.000,1.000,General
 Lights Internal Gains, THERMAL ZONE 20 ASHRAE_90.1-2004 CLIMATEZONE 1-8 SMALLOFFICE WHOLEBUILDING LIGHTS,SMALL OFFICE_BLDG_LIGHT,THERMAL ZONE 20,30.69,1.7,330.304,10.764,200.000,0.000,0.000,0.000,1.000,1.000,General
 Lights Internal Gains, THERMAL ZONE 21 ASHRAE_90.1-2004 CLIMATEZONE 1-8 SMALLOFFICE WHOLEBUILDING LIGHTS,SMALL OFFICE_BLDG_LIGHT,THERMAL ZONE 21,30.69,1.7,330.304,10.764,200.000,0.000,0.000,0.000,1.000,1.000,General
 Lights Internal Gains, THERMAL ZONE 22 ASHRAE_90.1-2004 CLIMATEZONE 1-8 SMALLOFFICE WHOLEBUILDING LIGHTS,SMALL OFFICE_BLDG_LIGHT,THERMAL ZONE 22,52.25,2.8,562.467,10.764,200.000,0.000,0.000,0.000,1.000,1.000,General
 Lights Internal Gains, THERMAL ZONE 23 ASHRAE_90.1-2004 CLIMATEZONE 1-8 SMALLOFFICE WHOLEBUILDING LIGHTS,SMALL OFFICE_BLDG_LIGHT,THERMAL ZONE 23,52.25,2.8,562.467,10.764,200.000,0.000,0.000,0.000,1.000,1.000,General
 Lights Internal Gains, THERMAL ZONE 24 ASHRAE_90.1-2004 CLIMATEZONE 1-8 SMALLOFFICE WHOLEBUILDING LIGHTS,SMALL OFFICE_BLDG_LIGHT,THERMAL ZONE 24,52.25,2.8,562.467,10.764,200.000,0.000,0.000,0.000,1.000,1.000,General
 Lights Internal Gains, THERMAL ZONE 25 ASHRAE_90.1-2004 CLIMATEZONE 1-8 SMALLOFFICE WHOLEBUILDING LIGHTS,SMALL OFFICE_BLDG_LIGHT,THERMAL ZONE 25,30.69,1.7,330.304,10.764,200.000,0.000,0.000,0.000,1.000,1.000,General
 Lights Internal Gains, THERMAL ZONE 3 ASHRAE_90.1-2004 CLIMATEZONE 1-8 SMALLOFFICE WHOLEBUILDING LIGHTS,SMALL OFFICE_BLDG_LIGHT,THERMAL ZONE 3,30.69,1.7,330.304,10.764,200.000,0.000,0.000,0.000,1.000,1.000,General
 Lights Internal Gains, THERMAL ZONE 4 ASHRAE_90.1-2004 CLIMATEZONE 1-8 SMALLOFFICE WHOLEBUILDING LIGHTS,SMALL OFFICE_BLDG_LIGHT,THERMAL ZONE 4,30.69,1.7,330.304,10.764,200.000,0.000,0.000,0.000,1.000,1.000,General
 Lights Internal Gains, THERMAL ZONE 5 ASHRAE_90.1-2004 CLIMATEZONE 1-8 SMALLOFFICE WHOLEBUILDING LIGHTS,SMALL OFFICE_BLDG_LIGHT,THERMAL ZONE 5,30.69,1.7,330.304,10.764,200.000,0.000,0.000,0.000,1.000,1.000,General
 Lights Internal Gains, THERMAL ZONE 6 ASHRAE_90.1-2004 CLIMATEZONE 1-8 SMALLOFFICE WHOLEBUILDING LIGHTS,SMALL OFFICE_BLDG_LIGHT,THERMAL ZONE 6,30.69,1.7,330.304,10.764,200.000,0.000,0.000,0.000,1.000,1.000,General
 Lights Internal Gains, THERMAL ZONE 7 ASHRAE_90.1-2004 CLIMATEZONE 1-8 SMALLOFFICE WHOLEBUILDING LIGHTS,SMALL OFFICE_BLDG_LIGHT,THERMAL ZONE 7,30.69,1.7,330.304,10.764,200.000,0.000,0.000,0.000,1.000,1.000,General
 Lights Internal Gains, THERMAL ZONE 8 ASHRAE_90.1-2004 CLIMATEZONE 1-8 SMALLOFFICE WHOLEBUILDING LIGHTS,SMALL OFFICE_BLDG_LIGHT,THERMAL ZONE 8,52.25,2.8,562.467,10.764,200.000,0.000,0.000,0.000,1.000,1.000,General
 Lights Internal Gains, THERMAL ZONE 9 ASHRAE_90.1-2004 CLIMATEZONE 1-8 SMALLOFFICE WHOLEBUILDING LIGHTS,SMALL OFFICE_BLDG_LIGHT,THERMAL ZONE 9,30.69,1.7,330.304,10.764,200.000,0.000,0.000,0.000,1.000,1.000,General
! <ElectricEquipment Internal Gains - Nominal>,Name,Schedule Name,Zone Name,Zone Floor Area {m2},# Zone Occupants,Equipment Level {W},Equipment/Floor Area {W/m2},Equipment per person {W/person},Fraction Latent,Fraction Radiant,Fraction Lost,Fraction Convected,EndUse SubCategory
 ElectricEquipment Internal Gains, THERMAL ZONE 1 ASHRAE_90.1-2004 CLIMATEZONE 1-8 SMALLOFFICE WHOLEBUILDING ELECTRIC EQUIPMENT,SMALL OFFICE_BLDG_EQUIP,THERMAL ZONE 1,30.69,1.7,330.304,10.764,200.000,0.000,0.000,0.000,1.000,General
 ElectricEquipment Internal Gains, THERMAL ZONE 10 ASHRAE_90.1-2004 CLIMATEZONE 1-8 SMALLOFFICE WHOLEBUILDING ELECTRIC EQUIPMENT,SMALL OFFICE_BLDG_EQUIP,THERMAL ZONE 10,30.69,1.7,330.304,10.764,200.000,0.000,0.000,0.000,1.000,General
 ElectricEquipment Internal Gains, THERMAL ZONE 11 ASHRAE_90.1-2004 CLIMATEZONE 1-8 SMALLOFFICE WHOLEBUILDING ELECTRIC EQUIPMENT,SMALL OFFICE_BLDG_EQUIP,THERMAL ZONE 11,30.69,1.7,330.304,10.764,200.000,0.000,0.000,0.000,1.000,General
 ElectricEquipment Internal Gains, THERMAL ZONE 12 ASHRAE_90.1-2004 CLIMATEZONE 1-8 SMALLOFFICE WHOLEBUILDING ELECTRIC EQUIPMENT,SMALL OFFICE_BLDG_EQUIP,THERMAL ZONE 12,30.69,1.7,330.304,10.764,200.000,0.000,0.000,0.000,1.000,General
 ElectricEquipment Internal Gains, THERMAL ZONE 13 ASHRAE_90.1-2004 CLIMATEZONE 1-8 SMALLOFFICE WHOLEBUILDING ELECTRIC EQUIPMENT,SMALL OFFICE_BLDG_EQUIP,THERMAL ZONE 13,52.25,2.8,562.467,10.764,200.000,0.000,0.000,0.000,1.000,General
 ElectricEquipment Internal Gains, THERMAL ZONE 14 ASHRAE_90.1-2004 CLIMATEZONE 1-8 SMALLOFFICE WHOLEBUILDING ELECTRIC EQUIPMENT,SMALL OFFICE_BLDG_EQUIP,THERMAL ZONE 14,30.69,1.7,330.304,10.764,200.000,0.000,0.000,0.000,1.000,General
 ElectricEquipment Internal Gains, THERMAL ZONE 15 ASHRAE_90.1-2004 CLIMATEZONE 1-8 SMALLOFFICE WHOLEBUILDING ELECTRIC EQUIPMENT,SMALL OFFICE_BLDG_EQUIP,THERMAL ZONE 15,30.69,1.7,330.304,10.764,200.000,0.000,0.000,0.000,1.000,General
 ElectricEquipment Internal Gains, THERMAL ZONE 16 ASHRAE_90.1-2004 CLIMATEZONE 1-8 SMALLOFFICE WHOLEBUILDING ELECTRIC EQUIPMENT,SMALL OFFICE_BLDG_EQUIP,THERMAL ZONE 16,30.69,1.7,330.304,10.764,200.000,0.000,0.000,0.000,1.000,General
 ElectricEquipment Internal Gains, THERMAL ZONE 17 ASHRAE_90.1-2004 CLIMATEZONE 1-8 SMALLOFFICE WHOLEBUILDING ELECTRIC EQUIPMENT,SMALL OFFICE_BLDG_EQUIP,THERMAL ZONE 17,30.69,1.7,330.304,10.764,200.000,0.000,0.000,0.000,1.000,General
 ElectricEquipment Internal Gains, THERMAL ZONE 18 ASHRAE_90.1-2004 CLIMATEZONE 1-8 SMALLOFFICE WHOLEBUILDING ELECTRIC EQUIPMENT,SMALL OFFICE_BLDG_EQUIP,THERMAL ZONE 18,30.69,1.7,330.304,10.764,200.000,0.000,0.000,0.000,1.000,General
 ElectricEquipment Internal Gains, THERMAL ZONE 19 ASHRAE_90.1-2004 CLIMATEZONE 1-8 SMALLOFFICE WHOLEBUILDING ELECTRIC EQUIPMENT,SMALL OFFICE_BLDG_EQUIP,THERMAL ZONE 19,30.69,1.7,330.304,10.764,200.000,0.000,0.000,0.000,1.000,General
 ElectricEquipment Internal Gains, THERMAL ZONE 2 ASHRAE_90.1-2004 CLIMATEZONE 1-8 SMALLOFFICE WHOLEBUILDING ELECTRIC EQUIPMENT,SMALL OFFICE_BLDG_EQUIP,THERMAL ZONE 2,30.69,1.7,330.304,10.764,200.000,0.000,0.000,0.000,1.000,General
 ElectricEquipment Internal Gains, THERMAL ZONE 20 ASHRAE_90.1-2004 CLIMATEZONE 1-8 SMALLOFFICE WHOLEBUILDING ELECTRIC EQUIPMENT,SMALL OFFICE_BLDG_EQUIP,THERMAL ZONE 20,30.69,1.7,330.304,10.764,200.000,0.000,0.000,0.000,1.000,General
 ElectricEquipment Internal Gains, THERMAL ZONE 21 ASHRAE_90.1-2004 CLIMATEZONE 1-8 SMALLOFFICE WHOLEBUILDING ELECTRIC EQUIPMENT,SMALL OFFICE_BLDG_EQUIP,THERMAL ZONE 21,30.69,1.7,330.304,10.764,200.000,0.000,0.000,0.000,1.000,General
 ElectricEquipment Internal Gains, THERMAL ZONE 22 ASHRAE_90.1-2004 CLIMATEZONE 1-8 SMALLOFFICE WHOLEBUILDING ELECTRIC EQUIPMENT,SMALL OFFICE_BLDG_EQUIP,THERMAL ZONE 22,52.25,2.8,562.467,10.764,200.000,0.000,0.000,0.000,1.000,General
 ElectricEquipment Internal Gains, THERMAL ZONE 23 ASHRAE_90.1-2004 CLIMATEZONE 1-8 SMALLOFFICE WHOLEBUILDING ELECTRIC EQUIPMENT,SMALL OFFICE_BLDG_EQUIP,THERMAL ZONE 23,52.25,2.8,562.467,10.764,200.000,0.000,0.000,0.000,1.000,General
 ElectricEquipment Internal Gains, THERMAL ZONE 24 ASHRAE_90.1-2004 CLIMATEZONE 1-8 SMALLOFFICE WHOLEBUILDING ELECTRIC EQUIPMENT,SMALL OFFICE_BLDG_EQUIP,THERMAL ZONE 24,52.25,2.8,562.467,10.764,200.000,0.000,0.000,0.000,1.000,General
 ElectricEquipment Internal Gains, THERMAL ZONE 25 ASHRAE_90.1-2004 CLIMATEZONE 1-8 SMALLOFFICE WHOLEBUILDING ELECTRIC EQUIPMENT,SMALL OFFICE_BLDG_EQUIP,THERMAL ZONE 25,30.69,1.7,330.304,10.764,200.000,0.000,0.000,0.000,1.000,General
 ElectricEquipment Internal Gains, THERMAL ZONE 3 ASHRAE_90.1-2004 CLIMATEZONE 1-8 SMALLOFFICE WHOLEBUILDING ELECTRIC EQUIPMENT,SMALL OFFICE_BLDG_EQUIP,THERMAL ZONE 3,30.69,1.7,330.304,10.764,200.000,0.000,0.000,0.000,1.000,General
 ElectricEquipment Internal Gains, THERMAL ZONE 4 ASHRAE_90.1-2004 CLIMATEZONE 1-8 SMALLOFFICE WHOLEBUILDING ELECTRIC EQUIPMENT,SMALL OFFICE_BLDG_EQUIP,THERMAL ZONE 4,30.69,1.7,330.304,10.764,200.000,0.000,0.000,0.000,1.000,General
 ElectricEquipment Internal Gains, THERMAL ZONE 5 ASHRAE_90.1-2004 CLIMATEZONE 1-8 SMALLOFFICE WHOLEBUILDING ELECTRIC EQUIPMENT,SMALL OFFICE_BLDG_EQUIP,THERMAL ZONE 5,30.69,1.7,330.304,10.764,200.000,0.000,0.000,0.000,1.000,General
 ElectricEquipment Internal Gains, THERMAL ZONE 6 ASHRAE_90.1-2004 CLIMATEZONE 1-8 SMALLOFFICE WHOLEBUILDING ELECTRIC EQUIPMENT,SMALL OFFICE_BLDG_EQUIP,THERMAL ZONE 6,30.69,1.7,330.304,10.764,200.000,0.000,0.000,0.000,1.000,General
 ElectricEquipment Internal Gains, THERMAL ZONE 7 ASHRAE_90.1-2004 CLIMATEZONE 1-8 SMALLOFFICE WHOLEBUILDING ELECTRIC EQUIPMENT,SMALL OFFICE_BLDG_EQUIP,THERMAL ZONE 7,30.69,1.7,330.304,10.764,200.000,0.000,0.000,0.000,1.000,General
 ElectricEquipment Internal Gains, THERMAL ZONE 8 ASHRAE_90.1-2004 CLIMATEZONE 1-8 SMALLOFFICE WHOLEBUILDING ELECTRIC EQUIPMENT,SMALL OFFICE_BLDG_EQUIP,THERMAL ZONE 8,52.25,2.8,562.467,10.764,200.000,0.000,0.000,0.000,1.000,General
 ElectricEquipment Internal Gains, THERMAL ZONE 9 ASHRAE_90.1-2004 CLIMATEZONE 1-8 SMALLOFFICE WHOLEBUILDING ELECTRIC EQUIPMENT,SMALL OFFICE_BLDG_EQUIP,THERMAL ZONE 9,30.69,1.7,330.304,10.764,200.000,0.000,0.000,0.000,1.000,General
! <Shadowing/Sun Position Calculations> [Annual Simulations], Value {days}, Allowable Number Figures in Shadow Overlap {}, Polygon Clipping Algorithm, Sky Diffuse Modeling Algorithm
Shadowing/Sun Position Calculations,20,15000,SutherlandHodgman,SimpleSkyDiffuseModeling
! <Infiltration Airflow Stats - Nominal>,Name,Schedule Name,Zone Name, Zone Floor Area {m2}, # Zone Occupants,Design Volume Flow Rate {m3/s},Volume Flow Rate/Floor Area {m3/s/m2},Volume Flow Rate/Exterior Surface Area {m3/s/m2},ACH - Air Changes per Hour,Equation A - Constant Term Coefficient {},Equation B - Temperature Term Coefficient {1/C},Equation C - Velocity Term Coefficient {s/m}, Equation D - Velocity Squared Term Coefficient {s2/m2}
 ZoneInfiltration Airflow Stats, THERMAL ZONE 1 ASHRAE_90.1-2004 CLIMATEZONE 1-8 SMALLOFFICE WHOLEBUILDING INFILTRATION,SMALL OFFICE_INFIL_QUARTER_ON,THERMAL ZONE 1,30.69,1.7,2.527E-002,8.235E-004,3.023E-004,0.741,1.000,0.000,0.000,0.000
 ZoneInfiltration Airflow Stats, THERMAL ZONE 10 ASHRAE_90.1-2004 CLIMATEZONE 1-8 SMALLOFFICE WHOLEBUILDING INFILTRATION,SMALL OFFICE_INFIL_QUARTER_ON,THERMAL ZONE 10,30.69,1.7,1.599E-002,5.212E-004,3.023E-004,0.469,1.000,0.000,0.000,0.000
 ZoneInfiltration Airflow Stats, THERMAL ZONE 11 ASHRAE_90.1-2004 CLIMATEZONE 1-8 SMALLOFFICE WHOLEBUILDING INFILTRATION,SMALL OFFICE_INFIL_QUARTER_ON,THERMAL ZONE 11,30.69,1.7,2.527E-002,8.235E-004,3.023E-004,0.741,1.000,0.000,0.000,0.000
 ZoneInfiltration Airflow Stats, THERMAL ZONE 12 ASHRAE_90.1-2004 CLIMATEZONE 1-8 SMALLOFFICE WHOLEBUILDING INFILTRATION,SMALL OFFICE_INFIL_QUARTER_ON,THERMAL ZONE 12,30.69,1.7,1.599E-002,5.212E-004,3.023E-004,0.469,1.000,0.000,0.000,0.000
 ZoneInfiltration Airflow Stats, THERMAL ZONE 13 ASHRAE_90.1-2004 CLIMATEZONE 1-8 SMALLOFFICE WHOLEBUILDING INFILTRATION,SMALL OFFICE_INFIL_QUARTER_ON,THERMAL ZONE 13,52.25,2.8,1.579E-002,3.023E-004,3.023E-004,0.272,1.000,0.000,0.000,0.000
 ZoneInfiltration Airflow Stats, THERMAL ZONE 14 ASHRAE_90.1-2004 CLIMATEZONE 1-8 SMALLOFFICE WHOLEBUILDING INFILTRATION,SMALL OFFICE_INFIL_QUARTER_ON,THERMAL ZONE 14,30.69,1.7,1.599E-002,5.212E-004,3.023E-004,0.469,1.000,0.000,0.000,0.000
 ZoneInfiltration Airflow Stats, THERMAL ZONE 15 ASHRAE_90.1-2004 CLIMATEZONE 1-8 SMALLOFFICE WHOLEBUILDING INFILTRATION,SMALL OFFICE_INFIL_QUARTER_ON,THERMAL ZONE 15,30.69,1.7,1.599E-002,5.212E-004,3.023E-004,0.469,1.000,0.000,0.000,0.000
 ZoneInfiltration Airflow Stats, THERMAL ZONE 16 ASHRAE_90.1-2004 CLIMATEZONE 1-8 SMALLOFFICE WHOLEBUILDING INFILTRATION,SMALL OFFICE_INFIL_QUARTER_ON,THERMAL ZONE 16,30.69,1.7,2.527E-002,8.235E-004,3.023E-004,0.741,1.000,0.000,0.000,0.000
 ZoneInfiltration Airflow Stats, THERMAL ZONE 17 ASHRAE_90.1-2004 CLIMATEZONE 1-8 SMALLOFFICE WHOLEBUILDING INFILTRATION,SMALL OFFICE_INFIL_QUARTER_ON,THERMAL ZONE 17,30.69,1.7,1.599E-002,5.212E-004,3.023E-004,0.469,1.000,0.000,0.000,0.000
 ZoneInfiltration Airflow Stats, THERMAL ZONE 18 ASHRAE_90.1-2004 CLIMATEZONE 1-8 SMALLOFFICE WHOLEBUILDING INFILTRATION,SMALL OFFICE_INFIL_QUARTER_ON,THERMAL ZONE 18,30.69,1.7,1.599E-002,5.212E-004,3.023E-004,0.469,1.000,0.000,0.000,0.000
 ZoneInfiltration Airflow Stats, THERMAL ZONE 19 ASHRAE_90.1-2004 CLIMATEZONE 1-8 SMALLOFFICE WHOLEBUILDING INFILTRATION,SMALL OFFICE_INFIL_QUARTER_ON,THERMAL ZONE 19,30.69,1.7,1.599E-002,5.212E-004,3.023E-004,0.469,1.000,0.000,0.000,0.000
 ZoneInfiltration Airflow Stats, THERMAL ZONE 2 ASHRAE_90.1-2004 CLIMATEZONE 1-8 SMALLOFFICE WHOLEBUILDING INFILTRATION,SMALL OFFICE_INFIL_QUARTER_ON,THERMAL ZONE 2,30.69,1.7,1.599E-002,5.212E-004,3.023E-004,0.469,1.000,0.000,0.000,0.000
 ZoneInfiltration Airflow Stats, THERMAL ZONE 20 ASHRAE_90.1-2004 CLIMATEZONE 1-8 SMALLOFFICE WHOLEBUILDING INFILTRATION,SMALL OFFICE_INFIL_QUARTER_ON,THERMAL ZONE 20,30.69,1.7,1.599E-002,5.212E-004,3.023E-004,0.469,1.000,0.000,0.000,0.000
 ZoneInfiltration Airflow Stats, THERMAL ZONE 21 ASHRAE_90.1-2004 CLIMATEZONE 1-8 SMALLOFFICE WHOLEBUILDING INFILTRATION,SMALL OFFICE_INFIL_QUARTER_ON,THERMAL ZONE 21,30.69,1.7,1.599E-002,5.212E-004,3.023E-004,0.469,1.000,0.000,0.000,0.000
 ZoneInfiltration Airflow Stats, THERMAL ZONE 22 ASHRAE_90.1-2004 CLIMATEZONE 1-8 SMALLOFFICE WHOLEBUILDING INFILTRATION,SMALL OFFICE_INFIL_QUARTER_ON,THERMAL ZONE 22,52.25,2.8,0.000,0.000,N/A,0.000,1.000,0.000,0.000,0.000
 ZoneInfiltration Airflow Stats, THERMAL ZONE 23 ASHRAE_90.1-2004 CLIMATEZONE 1-8 SMALLOFFICE WHOLEBUILDING INFILTRATION,SMALL OFFICE_INFIL_QUARTER_ON,THERMAL ZONE 23,52.25,2.8,0.000,0.000,N/A,0.000,1.000,0.000,0.000,0.000
 ZoneInfiltration Airflow Stats, THERMAL ZONE 24 ASHRAE_90.1-2004 CLIMATEZONE 1-8 SMALLOFFICE WHOLEBUILDING INFILTRATION,SMALL OFFICE_INFIL_QUARTER_ON,THERMAL ZONE 24,52.25,2.8,0.000,0.000,N/A,0.000,1.000,0.000,0.000,0.000
 ZoneInfiltration Airflow Stats, THERMAL ZONE 25 ASHRAE_90.1-2004 CLIMATEZONE 1-8 SMALLOFFICE WHOLEBUILDING INFILTRATION,SMALL OFFICE_INFIL_QUARTER_ON,THERMAL ZONE 25,30.69,1.7,1.599E-002,5.212E-004,3.023E-004,0.469,1.000,0.000,0.000,0.000
 ZoneInfiltration Airflow Stats, THERMAL ZONE 3 ASHRAE_90.1-2004 CLIMATEZONE 1-8 SMALLOFFICE WHOLEBUILDING INFILTRATION,SMALL OFFICE_INFIL_QUARTER_ON,THERMAL ZONE 3,30.69,1.7,1.599E-002,5.212E-004,3.023E-004,0.469,1.000,0.000,0.000,0.000
 ZoneInfiltration Airflow Stats, THERMAL ZONE 4 ASHRAE_90.1-2004 CLIMATEZONE 1-8 SMALLOFFICE WHOLEBUILDING INFILTRATION,SMALL OFFICE_INFIL_QUARTER_ON,THERMAL ZONE 4,30.69,1.7,1.599E-002,5.212E-004,3.023E-004,0.469,1.000,0.000,0.000,0.000
 ZoneInfiltration Airflow Stats, THERMAL ZONE 5 ASHRAE_90.1-2004 CLIMATEZONE 1-8 SMALLOFFICE WHOLEBUILDING INFILTRATION,SMALL OFFICE_INFIL_QUARTER_ON,THERMAL ZONE 5,30.69,1.7,1.599E-002,5.212E-004,3.023E-004,0.469,1.000,0.000,0.000,0.000
 ZoneInfiltration Airflow Stats, THERMAL ZONE 6 ASHRAE_90.1-2004 CLIMATEZONE 1-8 SMALLOFFICE WHOLEBUILDING INFILTRATION,SMALL OFFICE_INFIL_QUARTER_ON,THERMAL ZONE 6,30.69,1.7,2.527E-002,8.235E-004,3.023E-004,0.741,1.000,0.000,0.000,0.000
 ZoneInfiltration Airflow Stats, THERMAL ZONE 7 ASHRAE_90.1-2004 CLIMATEZONE 1-8 SMALLOFFICE WHOLEBUILDING INFILTRATION,SMALL OFFICE_INFIL_QUARTER_ON,THERMAL ZONE 7,30.69,1.7,1.599E-002,5.212E-004,3.023E-004,0.469,1.000,0.000,0.000,0.000
 ZoneInfiltration Airflow Stats, THERMAL ZONE 8 ASHRAE_90.1-2004 CLIMATEZONE 1-8 SMALLOFFICE WHOLEBUILDING INFILTRATION,SMALL OFFICE_INFIL_QUARTER_ON,THERMAL ZONE 8,52.25,2.8,0.000,0.000,N/A,0.000,1.000,0.000,0.000,0.000
 ZoneInfiltration Airflow Stats, THERMAL ZONE 9 ASHRAE_90.1-2004 CLIMATEZONE 1-8 SMALLOFFICE WHOLEBUILDING INFILTRATION,SMALL OFFICE_INFIL_QUARTER_ON,THERMAL ZONE 9,30.69,1.7,1.599E-002,5.212E-004,3.023E-004,0.469,1.000,0.000,0.000,0.000
! <AirFlow Model>, Simple
 AirFlow Model, Simple
! <RoomAir Model>, Zone Name, Mixing/Mundt/UCSDDV/UCSDCV/UCSDUFI/UCSDUFE/User Defined
RoomAir Model,THERMAL ZONE 24,Mixing/Well-Stirred
RoomAir Model,THERMAL ZONE 9,Mixing/Well-Stirred
RoomAir Model,THERMAL ZONE 16,Mixing/Well-Stirred
RoomAir Model,THERMAL ZONE 21,Mixing/Well-Stirred
RoomAir Model,THERMAL ZONE 4,Mixing/Well-Stirred
RoomAir Model,THERMAL ZONE 17,Mixing/Well-Stirred
RoomAir Model,THERMAL ZONE 20,Mixing/Well-Stirred
RoomAir Model,THERMAL ZONE 2,Mixing/Well-Stirred
RoomAir Model,THERMAL ZONE 18,Mixing/Well-Stirred
RoomAir Model,THERMAL ZONE 8,Mixing/Well-Stirred
RoomAir Model,THERMAL ZONE 22,Mixing/Well-Stirred
RoomAir Model,THERMAL ZONE 3,Mixing/Well-Stirred
RoomAir Model,THERMAL ZONE 12,Mixing/Well-Stirred
RoomAir Model,THERMAL ZONE 7,Mixing/Well-Stirred
RoomAir Model,THERMAL ZONE 19,Mixing/Well-Stirred
RoomAir Model,THERMAL ZONE 11,Mixing/Well-Stirred
RoomAir Model,THERMAL ZONE 25,Mixing/Well-Stirred
RoomAir Model,THERMAL ZONE 15,Mixing/Well-Stirred
RoomAir Model,THERMAL ZONE 5,Mixing/Well-Stirred
RoomAir Model,THERMAL ZONE 10,Mixing/Well-Stirred
RoomAir Model,THERMAL ZONE 13,Mixing/Well-Stirred
RoomAir Model,THERMAL ZONE 1,Mixing/Well-Stirred
RoomAir Model,THERMAL ZONE 6,Mixing/Well-Stirred
RoomAir Model,THERMAL ZONE 23,Mixing/Well-Stirred
RoomAir Model,THERMAL ZONE 14,Mixing/Well-Stirred
! <AirflowNetwork Model:Control>, No Multizone or Distribution/Multizone with Distribution/Multizone without Distribution/Multizone with Distribution only during Fan Operation
AirflowNetwork Model:Control,NoMultizoneOrDistribution
! <Zone Volume Capacitance Multiplier>, Sensible Heat Capacity Multiplier, Moisture Capacity Multiplier, Carbon Dioxide Capacity Multiplier, Generic Contaminant Capacity Multiplier
Zone Volume Capacitance Multiplier,   1.000 ,   1.000,   1.000,   1.000
! <Load Timesteps in Zone Design Calculation Averaging Window>, Value
 Load Timesteps in Zone Design Calculation Averaging Window,    4
! <Heating Sizing Factor Information>, Sizing Factor ID, Value
 Heating Sizing Factor Information, Global,   1.2500    
 Heating Sizing Factor Information, Zone THERMAL ZONE 24,   1.2500    
 Heating Sizing Factor Information, Zone THERMAL ZONE 9,   1.2500    
 Heating Sizing Factor Information, Zone THERMAL ZONE 16,   1.2500    
 Heating Sizing Factor Information, Zone THERMAL ZONE 21,   1.2500    
 Heating Sizing Factor Information, Zone THERMAL ZONE 4,   1.2500    
 Heating Sizing Factor Information, Zone THERMAL ZONE 17,   1.2500    
 Heating Sizing Factor Information, Zone THERMAL ZONE 20,   1.2500    
 Heating Sizing Factor Information, Zone THERMAL ZONE 2,   1.2500    
 Heating Sizing Factor Information, Zone THERMAL ZONE 18,   1.2500    
 Heating Sizing Factor Information, Zone THERMAL ZONE 8,   1.2500    
 Heating Sizing Factor Information, Zone THERMAL ZONE 22,   1.2500    
 Heating Sizing Factor Information, Zone THERMAL ZONE 3,   1.2500    
 Heating Sizing Factor Information, Zone THERMAL ZONE 12,   1.2500    
 Heating Sizing Factor Information, Zone THERMAL ZONE 7,   1.2500    
 Heating Sizing Factor Information, Zone THERMAL ZONE 19,   1.2500    
 Heating Sizing Factor Information, Zone THERMAL ZONE 11,   1.2500    
 Heating Sizing Factor Information, Zone THERMAL ZONE 25,   1.2500    
 Heating Sizing Factor Information, Zone THERMAL ZONE 15,   1.2500    
 Heating Sizing Factor Information, Zone THERMAL ZONE 5,   1.2500    
 Heating Sizing Factor Information, Zone THERMAL ZONE 10,   1.2500    
 Heating Sizing Factor Information, Zone THERMAL ZONE 13,   1.2500    
 Heating Sizing Factor Information, Zone THERMAL ZONE 1,   1.2500    
 Heating Sizing Factor Information, Zone THERMAL ZONE 6,   1.2500    
 Heating Sizing Factor Information, Zone THERMAL ZONE 23,   1.2500    
 Heating Sizing Factor Information, Zone THERMAL ZONE 14,   1.2500    
! <Cooling Sizing Factor Information>, Sizing Factor ID, Value
 Cooling Sizing Factor Information, Global,   1.1500    
 Cooling Sizing Factor Information, Zone THERMAL ZONE 24,   1.1500    
 Cooling Sizing Factor Information, Zone THERMAL ZONE 9,   1.1500    
 Cooling Sizing Factor Information, Zone THERMAL ZONE 16,   1.1500    
 Cooling Sizing Factor Information, Zone THERMAL ZONE 21,   1.1500    
 Cooling Sizing Factor Information, Zone THERMAL ZONE 4,   1.1500    
 Cooling Sizing Factor Information, Zone THERMAL ZONE 17,   1.1500    
 Cooling Sizing Factor Information, Zone THERMAL ZONE 20,   1.1500    
 Cooling Sizing Factor Information, Zone THERMAL ZONE 2,   1.1500    
 Cooling Sizing Factor Information, Zone THERMAL ZONE 18,   1.1500    
 Cooling Sizing Factor Information, Zone THERMAL ZONE 8,   1.1500    
 Cooling Sizing Factor Information, Zone THERMAL ZONE 22,   1.1500    
 Cooling Sizing Factor Information, Zone THERMAL ZONE 3,   1.1500    
 Cooling Sizing Factor Information, Zone THERMAL ZONE 12,   1.1500    
 Cooling Sizing Factor Information, Zone THERMAL ZONE 7,   1.1500    
 Cooling Sizing Factor Information, Zone THERMAL ZONE 19,   1.1500    
 Cooling Sizing Factor Information, Zone THERMAL ZONE 11,   1.1500    
 Cooling Sizing Factor Information, Zone THERMAL ZONE 25,   1.1500    
 Cooling Sizing Factor Information, Zone THERMAL ZONE 15,   1.1500    
 Cooling Sizing Factor Information, Zone THERMAL ZONE 5,   1.1500    
 Cooling Sizing Factor Information, Zone THERMAL ZONE 10,   1.1500    
 Cooling Sizing Factor Information, Zone THERMAL ZONE 13,   1.1500    
 Cooling Sizing Factor Information, Zone THERMAL ZONE 1,   1.1500    
 Cooling Sizing Factor Information, Zone THERMAL ZONE 6,   1.1500    
 Cooling Sizing Factor Information, Zone THERMAL ZONE 23,   1.1500    
 Cooling Sizing Factor Information, Zone THERMAL ZONE 14,   1.1500    
! <Zone Sizing Information>, Zone Name, Load Type, Calc Des Load {W}, User Des Load {W}, Calc Des Air Flow Rate {m3/s}, User Des Air Flow Rate {m3/s}, Design Day Name, Date/Time of Peak, Temperature at Peak {C}, Humidity Ratio at Peak {kgWater/kgDryAir}, Floor Area {m2}, # Occupants, Calc Outdoor Air Flow Rate {m3/s}
 Zone Sizing Information, THERMAL ZONE 24, Cooling, 668.18515, 768.41292, 3.97752E-002, 4.57415E-002, CHICAGO OHARE INTL AP ANN CLG .4% CONDNS DB=>MWB, 7/21 16:45:00, 32.04000, 1.49611E-002, 52.25492, 2.81234, 2.65455E-002
 Zone Sizing Information, THERMAL ZONE 24, Heating, 709.76360, 887.20450, 3.69957E-002, 4.62447E-002, CHICAGO OHARE INTL AP ANN HTG 99.6% CONDNS DB, 1/21 06:45:00, -20.00000, 6.49857E-004, 52.25492, 2.81234, 2.65455E-002
 Zone Sizing Information, THERMAL ZONE 9, Cooling, 1149.49605, 1321.92046, 6.84309E-002, 7.86955E-002, CHICAGO OHARE INTL AP ANN CLG .4% CONDNS DB=>MWB, 7/21 17:15:00, 31.56750, 1.49611E-002, 30.68627, 1.65152, 1.55886E-002
 Zone Sizing Information, THERMAL ZONE 9, Heating, 2354.94189, 2943.67736, 0.12270, 0.15338, CHICAGO OHARE INTL AP ANN HTG 99.6% CONDNS DB, 1/21 06:00:00, -20.00000, 6.49857E-004, 30.68627, 1.65152, 1.55886E-002
 Zone Sizing Information, THERMAL ZONE 16, Cooling, 1586.02063, 1823.92372, 9.44190E-002, 0.10858, CHICAGO OHARE INTL AP ANN CLG .4% CONDNS DB=>MWB, 7/21 14:45:00, 33.30000, 1.49611E-002, 30.68627, 1.65152, 1.55886E-002
 Zone Sizing Information, THERMAL ZONE 16, Heating, 3017.39739, 3771.74673, 0.15719, 0.19648, CHICAGO OHARE INTL AP ANN HTG 99.6% CONDNS DB, 1/21 06:00:00, -20.00000, 6.49857E-004, 30.68627, 1.65152, 1.55886E-002
 Zone Sizing Information, THERMAL ZONE 21, Cooling, 1078.56950, 1240.35492, 6.42081E-002, 7.38393E-002, CHICAGO OHARE INTL AP ANN CLG .4% CONDNS DB=>MWB, 7/21 18:30:00, 29.99250, 1.49611E-002, 30.68627, 1.65152, 1.55886E-002
 Zone Sizing Information, THERMAL ZONE 21, Heating, 2179.42834, 2724.28543, 0.11356, 0.14194, CHICAGO OHARE INTL AP ANN HTG 99.6% CONDNS DB, 1/21 06:00:00, -20.00000, 6.49857E-004, 30.68627, 1.65152, 1.55886E-002
 Zone Sizing Information, THERMAL ZONE 4, Cooling, 1843.58563, 2120.12347, 0.10975, 0.12621, CHICAGO OHARE INTL AP ANN CLG .4% CONDNS DB=>MWB, 7/21 17:30:00, 31.30500, 1.49611E-002, 30.68627, 1.65152, 1.55886E-002
 Zone Sizing Information, THERMAL ZONE 4, Heating, 2177.48256, 2721.85319, 0.11345, 0.14182, CHICAGO OHARE INTL AP ANN HTG 99.6% CONDNS DB, 1/21 06:00:00, -20.00000, 6.49857E-004, 30.68627, 1.65152, 1.55886E-002
 Zone Sizing Information, THERMAL ZONE 17, Cooling, 1649.02685, 1896.38087, 9.81657E-002, 0.11289, CHICAGO OHARE INTL AP ANN CLG .4% CONDNS DB=>MWB, 7/21 11:00:00, 30.88500, 1.49611E-002, 30.68627, 1.65152, 1.55886E-002
 Zone Sizing Information, THERMAL ZONE 17, Heating, 2181.34460, 2726.68075, 0.11365, 0.14207, CHICAGO OHARE INTL AP ANN HTG 99.6% CONDNS DB, 1/21 06:00:00, -20.00000, 6.49857E-004, 30.68627, 1.65152, 1.55886E-002
 Zone Sizing Information, THERMAL ZONE 20, Cooling, 1792.13253, 2060.95241, 0.10668, 0.12269, CHICAGO OHARE INTL AP ANN CLG .4% CONDNS DB=>MWB, 7/21 17:45:00, 31.04250, 1.49611E-002, 30.68627, 1.65152, 1.55886E-002
 Zone Sizing Information, THERMAL ZONE 20, Heating, 2179.71568, 2724.64460, 0.11357, 0.14196, CHICAGO OHARE INTL AP ANN HTG 99.6% CONDNS DB, 1/21 06:00:00, -20.00000, 6.49857E-004, 30.68627, 1.65152, 1.55886E-002
 Zone Sizing Information, THERMAL ZONE 2, Cooling, 1591.05387, 1829.71195, 9.47148E-002, 0.10892, CHICAGO OHARE INTL AP ANN CLG .4% CONDNS DB=>MWB, 7/21 11:00:00, 30.88500, 1.49611E-002, 30.68627, 1.65152, 1.55886E-002
 Zone Sizing Information, THERMAL ZONE 2, Heating, 2168.52587, 2710.65734, 0.11299, 0.14123, CHICAGO OHARE INTL AP ANN HTG 99.6% CONDNS DB, 1/21 06:00:00, -20.00000, 6.49857E-004, 30.68627, 1.65152, 1.55886E-002
 Zone Sizing Information, THERMAL ZONE 18, Cooling, 1646.36071, 1893.31481, 9.80070E-002, 0.11271, CHICAGO OHARE INTL AP ANN CLG .4% CONDNS DB=>MWB, 7/21 11:00:00, 30.88500, 1.49611E-002, 30.68627, 1.65152, 1.55886E-002
 Zone Sizing Information, THERMAL ZONE 18, Heating, 2164.21929, 2705.27411, 0.11276, 0.14095, CHICAGO OHARE INTL AP ANN HTG 99.6% CONDNS DB, 1/21 06:00:00, -20.00000, 6.49857E-004, 30.68627, 1.65152, 1.55886E-002
 Zone Sizing Information, THERMAL ZONE 8, Cooling, 1447.34160, 1664.44284, 8.61569E-002, 9.90804E-002, CHICAGO OHARE INTL AP ANN CLG .4% CONDNS DB=>MWB, 7/21 18:00:00, 30.78000, 1.49611E-002, 52.25492, 2.81234, 2.65455E-002
 Zone Sizing Information, THERMAL ZONE 8, Heating, 323.43963, 404.29953, 1.68590E-002, 2.65455E-002, CHICAGO OHARE INTL AP ANN HTG 99.6% CONDNS DB, 1/21 07:00:00, -20.00000, 6.49857E-004, 52.25492, 2.81234, 2.65455E-002
 Zone Sizing Information, THERMAL ZONE 22, Cooling, 1366.34441, 1571.29607, 8.13361E-002, 9.35365E-002, CHICAGO OHARE INTL AP ANN CLG .4% CONDNS DB=>MWB, 7/21 18:15:00, 30.38625, 1.49611E-002, 52.25492, 2.81234, 2.65455E-002
 Zone Sizing Information, THERMAL ZONE 22, Heating, 346.72650, 433.40812, 1.80728E-002, 2.65455E-002, CHICAGO OHARE INTL AP ANN HTG 99.6% CONDNS DB, 1/21 07:00:00, -20.00000, 6.49857E-004, 52.25492, 2.81234, 2.65455E-002
 Zone Sizing Information, THERMAL ZONE 3, Cooling, 1136.91359, 1307.45063, 6.76811E-002, 7.78332E-002, CHICAGO OHARE INTL AP ANN CLG .4% CONDNS DB=>MWB, 7/21 18:30:00, 29.99250, 1.49611E-002, 30.68627, 1.65152, 1.55886E-002
 Zone Sizing Information, THERMAL ZONE 3, Heating, 2195.45727, 2744.32159, 0.11439, 0.14299, CHICAGO OHARE INTL AP ANN HTG 99.6% CONDNS DB, 1/21 06:00:00, -20.00000, 6.49857E-004, 30.68627, 1.65152, 1.55886E-002
 Zone Sizing Information, THERMAL ZONE 12, Cooling, 1132.78482, 1302.70255, 6.74353E-002, 7.75506E-002, CHICAGO OHARE INTL AP ANN CLG .4% CONDNS DB=>MWB, 7/21 18:30:00, 29.99250, 1.49611E-002, 30.68627, 1.65152, 1.55886E-002
 Zone Sizing Information, THERMAL ZONE 12, Heating, 2177.13728, 2721.42160, 0.11344, 0.14179, CHICAGO OHARE INTL AP ANN HTG 99.6% CONDNS DB, 1/21 06:00:00, -20.00000, 6.49857E-004, 30.68627, 1.65152, 1.55886E-002
 Zone Sizing Information, THERMAL ZONE 7, Cooling, 1528.11167, 1757.32842, 9.09678E-002, 0.10461, CHICAGO OHARE INTL AP ANN CLG .4% CONDNS DB=>MWB, 7/21 14:45:00, 33.30000, 1.49611E-002, 30.68627, 1.65152, 1.55886E-002
 Zone Sizing Information, THERMAL ZONE 7, Heating, 2179.42834, 2724.28543, 0.11356, 0.14194, CHICAGO OHARE INTL AP ANN HTG 99.6% CONDNS DB, 1/21 06:00:00, -20.00000, 6.49857E-004, 30.68627, 1.65152, 1.55886E-002
 Zone Sizing Information, THERMAL ZONE 19, Cooling, 605.33209, 696.13191, 3.60374E-002, 4.14430E-002, CHICAGO OHARE INTL AP ANN CLG .4% CONDNS DB=>MWB, 7/21 18:15:00, 30.38625, 1.49611E-002, 30.68627, 1.65152, 1.55886E-002
 Zone Sizing Information, THERMAL ZONE 19, Heating, 2354.80017, 2943.50021, 0.12269, 0.15337, CHICAGO OHARE INTL AP ANN HTG 99.6% CONDNS DB, 1/21 06:00:00, -20.00000, 6.49857E-004, 30.68627, 1.65152, 1.55886E-002
 Zone Sizing Information, THERMAL ZONE 11, Cooling, 1624.85319, 1868.58117, 9.67309E-002, 0.11124, CHICAGO OHARE INTL AP ANN CLG .4% CONDNS DB=>MWB, 7/21 11:00:00, 30.88500, 1.49611E-002, 30.68627, 1.65152, 1.55886E-002
 Zone Sizing Information, THERMAL ZONE 11, Heating, 3002.61919, 3753.27398, 0.15642, 0.19552, CHICAGO OHARE INTL AP ANN HTG 99.6% CONDNS DB, 1/21 06:00:00, -20.00000, 6.49857E-004, 30.68627, 1.65152, 1.55886E-002
 Zone Sizing Information, THERMAL ZONE 25, Cooling, 924.08235, 1062.69470, 5.50130E-002, 6.32649E-002, CHICAGO OHARE INTL AP ANN CLG .4% CONDNS DB=>MWB, 7/21 14:15:00, 33.30000, 1.49611E-002, 30.68627, 1.65152, 1.55886E-002
 Zone Sizing Information, THERMAL ZONE 25, Heating, 2354.80017, 2943.50021, 0.12269, 0.15337, CHICAGO OHARE INTL AP ANN HTG 99.6% CONDNS DB, 1/21 06:00:00, -20.00000, 6.49857E-004, 30.68627, 1.65152, 1.55886E-002
 Zone Sizing Information, THERMAL ZONE 15, Cooling, 1580.43460, 1817.49979, 9.40824E-002, 0.10819, CHICAGO OHARE INTL AP ANN CLG .4% CONDNS DB=>MWB, 7/21 14:45:00, 33.30000, 1.49611E-002, 30.68627, 1.65152, 1.55886E-002
 Zone Sizing Information, THERMAL ZONE 15, Heating, 2177.13728, 2721.42160, 0.11344, 0.14179, CHICAGO OHARE INTL AP ANN HTG 99.6% CONDNS DB, 1/21 06:00:00, -20.00000, 6.49857E-004, 30.68627, 1.65152, 1.55886E-002
 Zone Sizing Information, THERMAL ZONE 5, Cooling, 964.22685, 1108.86088, 5.74031E-002, 6.60136E-002, CHICAGO OHARE INTL AP ANN CLG .4% CONDNS DB=>MWB, 7/21 10:45:00, 30.49125, 1.49611E-002, 30.68627, 1.65152, 1.55886E-002
 Zone Sizing Information, THERMAL ZONE 5, Heating, 2348.99756, 2936.24695, 0.12239, 0.15299, CHICAGO OHARE INTL AP ANN HTG 99.6% CONDNS DB, 1/21 06:00:00, -20.00000, 6.49857E-004, 30.68627, 1.65152, 1.55886E-002
 Zone Sizing Information, THERMAL ZONE 10, Cooling, 1843.95434, 2120.54749, 0.10977, 0.12623, CHICAGO OHARE INTL AP ANN CLG .4% CONDNS DB=>MWB, 7/21 17:30:00, 31.30500, 1.49611E-002, 30.68627, 1.65152, 1.55886E-002
 Zone Sizing Information, THERMAL ZONE 10, Heating, 2195.83268, 2744.79085, 0.11441, 0.14301, CHICAGO OHARE INTL AP ANN HTG 99.6% CONDNS DB, 1/21 06:00:00, -20.00000, 6.49857E-004, 30.68627, 1.65152, 1.55886E-002
 Zone Sizing Information, THERMAL ZONE 13, Cooling, 1527.21831, 1756.30106, 9.09165E-002, 0.10455, CHICAGO OHARE INTL AP ANN CLG .4% CONDNS DB=>MWB, 7/21 18:45:00, 29.59875, 1.49611E-002, 52.25492, 2.81234, 2.65455E-002
 Zone Sizing Information, THERMAL ZONE 13, Heating, 1692.43197, 2115.53996, 8.81915E-002, 0.11024, CHICAGO OHARE INTL AP ANN HTG 99.6% CONDNS DB, 1/21 06:00:00, -20.00000, 6.49857E-004, 52.25492, 2.81234, 2.65455E-002
 Zone Sizing Information, THERMAL ZONE 1, Cooling, 1183.76636, 1361.33132, 7.04732E-002, 8.10442E-002, CHICAGO OHARE INTL AP ANN CLG .4% CONDNS DB=>MWB, 7/21 18:30:00, 29.99250, 1.49611E-002, 30.68627, 1.65152, 1.55886E-002
 Zone Sizing Information, THERMAL ZONE 1, Heating, 3017.39739, 3771.74673, 0.15719, 0.19648, CHICAGO OHARE INTL AP ANN HTG 99.6% CONDNS DB, 1/21 06:00:00, -20.00000, 6.49857E-004, 30.68627, 1.65152, 1.55886E-002
 Zone Sizing Information, THERMAL ZONE 6, Cooling, 1870.67613, 2151.27755, 0.11136, 0.12807, CHICAGO OHARE INTL AP ANN CLG .4% CONDNS DB=>MWB, 7/21 17:30:00, 31.30500, 1.49611E-002, 30.68627, 1.65152, 1.55886E-002
 Zone Sizing Information, THERMAL ZONE 6, Heating, 3017.77438, 3772.21798, 0.15721, 0.19651, CHICAGO OHARE INTL AP ANN HTG 99.6% CONDNS DB, 1/21 06:00:00, -20.00000, 6.49857E-004, 30.68627, 1.65152, 1.55886E-002
 Zone Sizing Information, THERMAL ZONE 23, Cooling, 1458.15707, 1676.88063, 8.68006E-002, 9.98207E-002, CHICAGO OHARE INTL AP ANN CLG .4% CONDNS DB=>MWB, 7/21 18:00:00, 30.78000, 1.49611E-002, 52.25492, 2.81234, 2.65455E-002
 Zone Sizing Information, THERMAL ZONE 23, Heating, 350.80248, 438.50310, 1.82852E-002, 2.65455E-002, CHICAGO OHARE INTL AP ANN HTG 99.6% CONDNS DB, 1/21 07:00:00, -20.00000, 6.49857E-004, 52.25492, 2.81234, 2.65455E-002
 Zone Sizing Information, THERMAL ZONE 14, Cooling, 1582.10269, 1819.41809, 9.41817E-002, 0.10831, CHICAGO OHARE INTL AP ANN CLG .4% CONDNS DB=>MWB, 7/21 14:45:00, 33.30000, 1.49611E-002, 30.68627, 1.65152, 1.55886E-002
 Zone Sizing Information, THERMAL ZONE 14, Heating, 2195.45727, 2744.32159, 0.11439, 0.14299, CHICAGO OHARE INTL AP ANN HTG 99.6% CONDNS DB, 1/21 06:00:00, -20.00000, 6.49857E-004, 30.68627, 1.65152, 1.55886E-002
! <System Sizing Information>, System Name, Field Description, Value
 System Sizing Information, AIR LOOP HVAC 1, Calculated Cooling Design Air Flow Rate [m3/s], 2.38108
 System Sizing Information, AIR LOOP HVAC 1, User Cooling Design Air Flow Rate [m3/s], 2.38108
 System Sizing Information, AIR LOOP HVAC 1, Calculated Heating Design Air Flow Rate [m3/s], 3.33871
 System Sizing Information, AIR LOOP HVAC 1, User Heating Design Air Flow Rate [m3/s], 3.33871
! <Component Sizing Information>, Component Type, Component Name, Input Field Description, Value
 Component Sizing Information, AirTerminal:SingleDuct:VAV:Reheat, AIR TERMINAL SINGLE DUCT VAV REHEAT 14, Maximum Air Flow Rate [m3/s], 4.62447E-002
 Component Sizing Information, AirTerminal:SingleDuct:VAV:Reheat, AIR TERMINAL SINGLE DUCT VAV REHEAT 14, Maximum Flow per Zone Floor Area during Reheat [m3/s-m2], 8.84982E-004
 Component Sizing Information, AirTerminal:SingleDuct:VAV:Reheat, AIR TERMINAL SINGLE DUCT VAV REHEAT 14, Maximum Flow Fraction during Reheat [], 1.00000
 Component Sizing Information, AirTerminal:SingleDuct:VAV:Reheat, AIR TERMINAL SINGLE DUCT VAV REHEAT 14, Maximum Reheat Water Flow Rate [m3/s], 3.33229E-005
 Component Sizing Information, AirTerminal:SingleDuct:VAV:Reheat, AIR TERMINAL SINGLE DUCT VAV REHEAT 14, Reheat Coil Sizing Air Volume Flow Rate [m3/s], 4.62447E-002
 Component Sizing Information, Coil:Heating:Water, COIL HEATING WATER 15, Maximum Water Flow Rate [m3/s], 3.33229E-005
 Component Sizing Information, Coil:Heating:Water, COIL HEATING WATER 15, Design Coil Load [W], 1533.86270
 Component Sizing Information, Coil:Heating:Water, COIL HEATING WATER 15, U-Factor Times Area Value [W/K], 32.12442
! <Water Heating Coil Capacity Information>,Component Type,Name,Nominal Total Capacity {W}
Water Heating Coil Capacity Information,Coil:Heating:Water,COIL HEATING WATER 15,1453.06
 Component Sizing Information, AirTerminal:SingleDuct:VAV:Reheat, AIR TERMINAL SINGLE DUCT VAV REHEAT 15, Maximum Air Flow Rate [m3/s], 0.15338
 Component Sizing Information, AirTerminal:SingleDuct:VAV:Reheat, AIR TERMINAL SINGLE DUCT VAV REHEAT 15, Maximum Flow per Zone Floor Area during Reheat [m3/s-m2], 2.03200E-003
 Component Sizing Information, AirTerminal:SingleDuct:VAV:Reheat, AIR TERMINAL SINGLE DUCT VAV REHEAT 15, Maximum Flow Fraction during Reheat [], 0.40655
 Component Sizing Information, AirTerminal:SingleDuct:VAV:Reheat, AIR TERMINAL SINGLE DUCT VAV REHEAT 15, Maximum Reheat Water Flow Rate [m3/s], 1.10519E-004
 Component Sizing Information, AirTerminal:SingleDuct:VAV:Reheat, AIR TERMINAL SINGLE DUCT VAV REHEAT 15, Reheat Coil Sizing Air Volume Flow Rate [m3/s], 0.15338
 Component Sizing Information, Coil:Heating:Water, COIL HEATING WATER 16, Maximum Water Flow Rate [m3/s], 1.10519E-004
 Component Sizing Information, Coil:Heating:Water, COIL HEATING WATER 16, Design Coil Load [W], 5087.22485
 Component Sizing Information, Coil:Heating:Water, COIL HEATING WATER 16, U-Factor Times Area Value [W/K], 106.54419
Water Heating Coil Capacity Information,Coil:Heating:Water,COIL HEATING WATER 16,4819.23
 Component Sizing Information, AirTerminal:SingleDuct:VAV:Reheat, AIR TERMINAL SINGLE DUCT VAV REHEAT 8, Maximum Air Flow Rate [m3/s], 0.19648
 Component Sizing Information, AirTerminal:SingleDuct:VAV:Reheat, AIR TERMINAL SINGLE DUCT VAV REHEAT 8, Maximum Flow per Zone Floor Area during Reheat [m3/s-m2], 2.03200E-003
 Component Sizing Information, AirTerminal:SingleDuct:VAV:Reheat, AIR TERMINAL SINGLE DUCT VAV REHEAT 8, Maximum Flow Fraction during Reheat [], 0.31735
 Component Sizing Information, AirTerminal:SingleDuct:VAV:Reheat, AIR TERMINAL SINGLE DUCT VAV REHEAT 8, Maximum Reheat Water Flow Rate [m3/s], 1.41581E-004
 Component Sizing Information, AirTerminal:SingleDuct:VAV:Reheat, AIR TERMINAL SINGLE DUCT VAV REHEAT 8, Reheat Coil Sizing Air Volume Flow Rate [m3/s], 0.19648
 Component Sizing Information, Coil:Heating:Water, COIL HEATING WATER 9, Maximum Water Flow Rate [m3/s], 1.41581E-004
 Component Sizing Information, Coil:Heating:Water, COIL HEATING WATER 9, Design Coil Load [W], 6517.01752
 Component Sizing Information, Coil:Heating:Water, COIL HEATING WATER 9, U-Factor Times Area Value [W/K], 136.48902
Water Heating Coil Capacity Information,Coil:Heating:Water,COIL HEATING WATER 9,6173.70
 Component Sizing Information, AirTerminal:SingleDuct:VAV:Reheat, AIR TERMINAL SINGLE DUCT VAV REHEAT 9, Maximum Air Flow Rate [m3/s], 0.14194
 Component Sizing Information, AirTerminal:SingleDuct:VAV:Reheat, AIR TERMINAL SINGLE DUCT VAV REHEAT 9, Maximum Flow per Zone Floor Area during Reheat [m3/s-m2], 2.03200E-003
 Component Sizing Information, AirTerminal:SingleDuct:VAV:Reheat, AIR TERMINAL SINGLE DUCT VAV REHEAT 9, Maximum Flow Fraction during Reheat [], 0.43929
 Component Sizing Information, AirTerminal:SingleDuct:VAV:Reheat, AIR TERMINAL SINGLE DUCT VAV REHEAT 9, Maximum Reheat Water Flow Rate [m3/s], 1.02282E-004
 Component Sizing Information, AirTerminal:SingleDuct:VAV:Reheat, AIR TERMINAL SINGLE DUCT VAV REHEAT 9, Reheat Coil Sizing Air Volume Flow Rate [m3/s], 0.14194
 Component Sizing Information, Coil:Heating:Water, COIL HEATING WATER 10, Maximum Water Flow Rate [m3/s], 1.02282E-004
 Component Sizing Information, Coil:Heating:Water, COIL HEATING WATER 10, Design Coil Load [W], 4708.05343
 Component Sizing Information, Coil:Heating:Water, COIL HEATING WATER 10, U-Factor Times Area Value [W/K], 98.60302
Water Heating Coil Capacity Information,Coil:Heating:Water,COIL HEATING WATER 10,4460.03
 Component Sizing Information, AirTerminal:SingleDuct:VAV:Reheat, AIR TERMINAL SINGLE DUCT VAV REHEAT 21, Maximum Air Flow Rate [m3/s], 0.14182
 Component Sizing Information, AirTerminal:SingleDuct:VAV:Reheat, AIR TERMINAL SINGLE DUCT VAV REHEAT 21, Maximum Flow per Zone Floor Area during Reheat [m3/s-m2], 2.03200E-003
 Component Sizing Information, AirTerminal:SingleDuct:VAV:Reheat, AIR TERMINAL SINGLE DUCT VAV REHEAT 21, Maximum Flow Fraction during Reheat [], 0.43968
 Component Sizing Information, AirTerminal:SingleDuct:VAV:Reheat, AIR TERMINAL SINGLE DUCT VAV REHEAT 21, Maximum Reheat Water Flow Rate [m3/s], 1.02190E-004
 Component Sizing Information, AirTerminal:SingleDuct:VAV:Reheat, AIR TERMINAL SINGLE DUCT VAV REHEAT 21, Reheat Coil Sizing Air Volume Flow Rate [m3/s], 0.14182
 Component Sizing Information, Coil:Heating:Water, COIL HEATING WATER 22, Maximum Water Flow Rate [m3/s], 1.02190E-004
 Component Sizing Information, Coil:Heating:Water, COIL HEATING WATER 22, Design Coil Load [W], 4703.84879
 Component Sizing Information, Coil:Heating:Water, COIL HEATING WATER 22, U-Factor Times Area Value [W/K], 98.51496
Water Heating Coil Capacity Information,Coil:Heating:Water,COIL HEATING WATER 22,4456.05
 Component Sizing Information, AirTerminal:SingleDuct:VAV:Reheat, AIR TERMINAL SINGLE DUCT VAV REHEAT 5, Maximum Air Flow Rate [m3/s], 0.14207
 Component Sizing Information, AirTerminal:SingleDuct:VAV:Reheat, AIR TERMINAL SINGLE DUCT VAV REHEAT 5, Maximum Flow per Zone Floor Area during Reheat [m3/s-m2], 2.03200E-003
 Component Sizing Information, AirTerminal:SingleDuct:VAV:Reheat, AIR TERMINAL SINGLE DUCT VAV REHEAT 5, Maximum Flow Fraction during Reheat [], 0.43890
 Component Sizing Information, AirTerminal:SingleDuct:VAV:Reheat, AIR TERMINAL SINGLE DUCT VAV REHEAT 5, Maximum Reheat Water Flow Rate [m3/s], 1.02372E-004
 Component Sizing Information, AirTerminal:SingleDuct:VAV:Reheat, AIR TERMINAL SINGLE DUCT VAV REHEAT 5, Reheat Coil Sizing Air Volume Flow Rate [m3/s], 0.14207
 Component Sizing Information, Coil:Heating:Water, COIL HEATING WATER 6, Maximum Water Flow Rate [m3/s], 1.02372E-004
 Component Sizing Information, Coil:Heating:Water, COIL HEATING WATER 6, Design Coil Load [W], 4712.19319
 Component Sizing Information, Coil:Heating:Water, COIL HEATING WATER 6, U-Factor Times Area Value [W/K], 98.68972
Water Heating Coil Capacity Information,Coil:Heating:Water,COIL HEATING WATER 6,4463.96
 Component Sizing Information, AirTerminal:SingleDuct:VAV:Reheat, AIR TERMINAL SINGLE DUCT VAV REHEAT 24, Maximum Air Flow Rate [m3/s], 0.14196
 Component Sizing Information, AirTerminal:SingleDuct:VAV:Reheat, AIR TERMINAL SINGLE DUCT VAV REHEAT 24, Maximum Flow per Zone Floor Area during Reheat [m3/s-m2], 2.03200E-003
 Component Sizing Information, AirTerminal:SingleDuct:VAV:Reheat, AIR TERMINAL SINGLE DUCT VAV REHEAT 24, Maximum Flow Fraction during Reheat [], 0.43923
 Component Sizing Information, AirTerminal:SingleDuct:VAV:Reheat, AIR TERMINAL SINGLE DUCT VAV REHEAT 24, Maximum Reheat Water Flow Rate [m3/s], 1.02295E-004
 Component Sizing Information, AirTerminal:SingleDuct:VAV:Reheat, AIR TERMINAL SINGLE DUCT VAV REHEAT 24, Reheat Coil Sizing Air Volume Flow Rate [m3/s], 0.14196
 Component Sizing Information, Coil:Heating:Water, COIL HEATING WATER 25, Maximum Water Flow Rate [m3/s], 1.02295E-004
 Component Sizing Information, Coil:Heating:Water, COIL HEATING WATER 25, Design Coil Load [W], 4708.67419
 Component Sizing Information, Coil:Heating:Water, COIL HEATING WATER 25, U-Factor Times Area Value [W/K], 98.61602
Water Heating Coil Capacity Information,Coil:Heating:Water,COIL HEATING WATER 25,4460.62
 Component Sizing Information, AirTerminal:SingleDuct:VAV:Reheat, AIR TERMINAL SINGLE DUCT VAV REHEAT 23, Maximum Air Flow Rate [m3/s], 0.14123
 Component Sizing Information, AirTerminal:SingleDuct:VAV:Reheat, AIR TERMINAL SINGLE DUCT VAV REHEAT 23, Maximum Flow per Zone Floor Area during Reheat [m3/s-m2], 2.03200E-003
 Component Sizing Information, AirTerminal:SingleDuct:VAV:Reheat, AIR TERMINAL SINGLE DUCT VAV REHEAT 23, Maximum Flow Fraction during Reheat [], 0.44150
 Component Sizing Information, AirTerminal:SingleDuct:VAV:Reheat, AIR TERMINAL SINGLE DUCT VAV REHEAT 23, Maximum Reheat Water Flow Rate [m3/s], 1.01770E-004
 Component Sizing Information, AirTerminal:SingleDuct:VAV:Reheat, AIR TERMINAL SINGLE DUCT VAV REHEAT 23, Reheat Coil Sizing Air Volume Flow Rate [m3/s], 0.14123
 Component Sizing Information, Coil:Heating:Water, COIL HEATING WATER 24, Maximum Water Flow Rate [m3/s], 1.01770E-004
 Component Sizing Information, Coil:Heating:Water, COIL HEATING WATER 24, Design Coil Load [W], 4684.50161
 Component Sizing Information, Coil:Heating:Water, COIL HEATING WATER 24, U-Factor Times Area Value [W/K], 98.10976
Water Heating Coil Capacity Information,Coil:Heating:Water,COIL HEATING WATER 24,4437.72
 Component Sizing Information, AirTerminal:SingleDuct:VAV:Reheat, AIR TERMINAL SINGLE DUCT VAV REHEAT 11, Maximum Air Flow Rate [m3/s], 0.14095
 Component Sizing Information, AirTerminal:SingleDuct:VAV:Reheat, AIR TERMINAL SINGLE DUCT VAV REHEAT 11, Maximum Flow per Zone Floor Area during Reheat [m3/s-m2], 2.03200E-003
 Component Sizing Information, AirTerminal:SingleDuct:VAV:Reheat, AIR TERMINAL SINGLE DUCT VAV REHEAT 11, Maximum Flow Fraction during Reheat [], 0.44238
 Component Sizing Information, AirTerminal:SingleDuct:VAV:Reheat, AIR TERMINAL SINGLE DUCT VAV REHEAT 11, Maximum Reheat Water Flow Rate [m3/s], 1.01568E-004
 Component Sizing Information, AirTerminal:SingleDuct:VAV:Reheat, AIR TERMINAL SINGLE DUCT VAV REHEAT 11, Reheat Coil Sizing Air Volume Flow Rate [m3/s], 0.14095
 Component Sizing Information, Coil:Heating:Water, COIL HEATING WATER 12, Maximum Water Flow Rate [m3/s], 1.01568E-004
 Component Sizing Information, Coil:Heating:Water, COIL HEATING WATER 12, Design Coil Load [W], 4675.19705
 Component Sizing Information, Coil:Heating:Water, COIL HEATING WATER 12, U-Factor Times Area Value [W/K], 97.91489
Water Heating Coil Capacity Information,Coil:Heating:Water,COIL HEATING WATER 12,4428.91
 Component Sizing Information, AirTerminal:SingleDuct:VAV:Reheat, AIR TERMINAL SINGLE DUCT VAV REHEAT 6, Maximum Air Flow Rate [m3/s], 9.90804E-002
 Component Sizing Information, AirTerminal:SingleDuct:VAV:Reheat, AIR TERMINAL SINGLE DUCT VAV REHEAT 6, Maximum Flow per Zone Floor Area during Reheat [m3/s-m2], 1.89610E-003
 Component Sizing Information, AirTerminal:SingleDuct:VAV:Reheat, AIR TERMINAL SINGLE DUCT VAV REHEAT 6, Maximum Flow Fraction during Reheat [], 1.00000
 Component Sizing Information, AirTerminal:SingleDuct:VAV:Reheat, AIR TERMINAL SINGLE DUCT VAV REHEAT 6, Maximum Reheat Water Flow Rate [m3/s], 2.14185E-005
 Component Sizing Information, AirTerminal:SingleDuct:VAV:Reheat, AIR TERMINAL SINGLE DUCT VAV REHEAT 6, Reheat Coil Sizing Air Volume Flow Rate [m3/s], 2.97241E-002
 Component Sizing Information, Coil:Heating:Water, COIL HEATING WATER 7, Maximum Water Flow Rate [m3/s], 2.14185E-005
 Component Sizing Information, Coil:Heating:Water, COIL HEATING WATER 7, Design Coil Load [W], 985.90223
 Component Sizing Information, Coil:Heating:Water, COIL HEATING WATER 7, U-Factor Times Area Value [W/K], 68.82741
Water Heating Coil Capacity Information,Coil:Heating:Water,COIL HEATING WATER 7,1765.33
 Component Sizing Information, AirTerminal:SingleDuct:VAV:Reheat, AIR TERMINAL SINGLE DUCT VAV REHEAT 7, Maximum Air Flow Rate [m3/s], 9.35365E-002
 Component Sizing Information, AirTerminal:SingleDuct:VAV:Reheat, AIR TERMINAL SINGLE DUCT VAV REHEAT 7, Maximum Flow per Zone Floor Area during Reheat [m3/s-m2], 1.79000E-003
 Component Sizing Information, AirTerminal:SingleDuct:VAV:Reheat, AIR TERMINAL SINGLE DUCT VAV REHEAT 7, Maximum Flow Fraction during Reheat [], 1.00000
 Component Sizing Information, AirTerminal:SingleDuct:VAV:Reheat, AIR TERMINAL SINGLE DUCT VAV REHEAT 7, Maximum Reheat Water Flow Rate [m3/s], 2.02201E-005
 Component Sizing Information, AirTerminal:SingleDuct:VAV:Reheat, AIR TERMINAL SINGLE DUCT VAV REHEAT 7, Reheat Coil Sizing Air Volume Flow Rate [m3/s], 2.80610E-002
 Component Sizing Information, Coil:Heating:Water, COIL HEATING WATER 8, Maximum Water Flow Rate [m3/s], 2.02201E-005
 Component Sizing Information, Coil:Heating:Water, COIL HEATING WATER 8, Design Coil Load [W], 930.73756
 Component Sizing Information, Coil:Heating:Water, COIL HEATING WATER 8, U-Factor Times Area Value [W/K], 64.97628
Water Heating Coil Capacity Information,Coil:Heating:Water,COIL HEATING WATER 8,1666.55
 Component Sizing Information, AirTerminal:SingleDuct:VAV:Reheat, AIR TERMINAL SINGLE DUCT VAV REHEAT 4, Maximum Air Flow Rate [m3/s], 0.14299
 Component Sizing Information, AirTerminal:SingleDuct:VAV:Reheat, AIR TERMINAL SINGLE DUCT VAV REHEAT 4, Maximum Flow per Zone Floor Area during Reheat [m3/s-m2], 2.03200E-003
 Component Sizing Information, AirTerminal:SingleDuct:VAV:Reheat, AIR TERMINAL SINGLE DUCT VAV REHEAT 4, Maximum Flow Fraction during Reheat [], 0.43608
 Component Sizing Information, AirTerminal:SingleDuct:VAV:Reheat, AIR TERMINAL SINGLE DUCT VAV REHEAT 4, Maximum Reheat Water Flow Rate [m3/s], 1.03034E-004
 Component Sizing Information, AirTerminal:SingleDuct:VAV:Reheat, AIR TERMINAL SINGLE DUCT VAV REHEAT 4, Reheat Coil Sizing Air Volume Flow Rate [m3/s], 0.14299
 Component Sizing Information, Coil:Heating:Water, COIL HEATING WATER 5, Maximum Water Flow Rate [m3/s], 1.03034E-004
 Component Sizing Information, Coil:Heating:Water, COIL HEATING WATER 5, Design Coil Load [W], 4742.67980
 Component Sizing Information, Coil:Heating:Water, COIL HEATING WATER 5, U-Factor Times Area Value [W/K], 99.32822
Water Heating Coil Capacity Information,Coil:Heating:Water,COIL HEATING WATER 5,4492.84
 Component Sizing Information, AirTerminal:SingleDuct:VAV:Reheat, AIR TERMINAL SINGLE DUCT VAV REHEAT 16, Maximum Air Flow Rate [m3/s], 0.14179
 Component Sizing Information, AirTerminal:SingleDuct:VAV:Reheat, AIR TERMINAL SINGLE DUCT VAV REHEAT 16, Maximum Flow per Zone Floor Area during Reheat [m3/s-m2], 2.03200E-003
 Component Sizing Information, AirTerminal:SingleDuct:VAV:Reheat, AIR TERMINAL SINGLE DUCT VAV REHEAT 16, Maximum Flow Fraction during Reheat [], 0.43975
 Component Sizing Information, AirTerminal:SingleDuct:VAV:Reheat, AIR TERMINAL SINGLE DUCT VAV REHEAT 16, Maximum Reheat Water Flow Rate [m3/s], 1.02174E-004
 Component Sizing Information, AirTerminal:SingleDuct:VAV:Reheat, AIR TERMINAL SINGLE DUCT VAV REHEAT 16, Reheat Coil Sizing Air Volume Flow Rate [m3/s], 0.14179
 Component Sizing Information, Coil:Heating:Water, COIL HEATING WATER 17, Maximum Water Flow Rate [m3/s], 1.02174E-004
 Component Sizing Information, Coil:Heating:Water, COIL HEATING WATER 17, Design Coil Load [W], 4703.10286
 Component Sizing Information, Coil:Heating:Water, COIL HEATING WATER 17, U-Factor Times Area Value [W/K], 98.49934
Water Heating Coil Capacity Information,Coil:Heating:Water,COIL HEATING WATER 17,4455.35
 Component Sizing Information, AirTerminal:SingleDuct:VAV:Reheat, AIR TERMINAL SINGLE DUCT VAV REHEAT 17, Maximum Air Flow Rate [m3/s], 0.14194
 Component Sizing Information, AirTerminal:SingleDuct:VAV:Reheat, AIR TERMINAL SINGLE DUCT VAV REHEAT 17, Maximum Flow per Zone Floor Area during Reheat [m3/s-m2], 2.03200E-003
 Component Sizing Information, AirTerminal:SingleDuct:VAV:Reheat, AIR TERMINAL SINGLE DUCT VAV REHEAT 17, Maximum Flow Fraction during Reheat [], 0.43929
 Component Sizing Information, AirTerminal:SingleDuct:VAV:Reheat, AIR TERMINAL SINGLE DUCT VAV REHEAT 17, Maximum Reheat Water Flow Rate [m3/s], 1.02282E-004
 Component Sizing Information, AirTerminal:SingleDuct:VAV:Reheat, AIR TERMINAL SINGLE DUCT VAV REHEAT 17, Reheat Coil Sizing Air Volume Flow Rate [m3/s], 0.14194
 Component Sizing Information, Coil:Heating:Water, COIL HEATING WATER 18, Maximum Water Flow Rate [m3/s], 1.02282E-004
 Component Sizing Information, Coil:Heating:Water, COIL HEATING WATER 18, Design Coil Load [W], 4708.05343
 Component Sizing Information, Coil:Heating:Water, COIL HEATING WATER 18, U-Factor Times Area Value [W/K], 98.60302
Water Heating Coil Capacity Information,Coil:Heating:Water,COIL HEATING WATER 18,4460.03
 Component Sizing Information, AirTerminal:SingleDuct:VAV:Reheat, AIR TERMINAL SINGLE DUCT VAV REHEAT 3, Maximum Air Flow Rate [m3/s], 0.15337
 Component Sizing Information, AirTerminal:SingleDuct:VAV:Reheat, AIR TERMINAL SINGLE DUCT VAV REHEAT 3, Maximum Flow per Zone Floor Area during Reheat [m3/s-m2], 2.03200E-003
 Component Sizing Information, AirTerminal:SingleDuct:VAV:Reheat, AIR TERMINAL SINGLE DUCT VAV REHEAT 3, Maximum Flow Fraction during Reheat [], 0.40657
 Component Sizing Information, AirTerminal:SingleDuct:VAV:Reheat, AIR TERMINAL SINGLE DUCT VAV REHEAT 3, Maximum Reheat Water Flow Rate [m3/s], 1.10512E-004
 Component Sizing Information, AirTerminal:SingleDuct:VAV:Reheat, AIR TERMINAL SINGLE DUCT VAV REHEAT 3, Reheat Coil Sizing Air Volume Flow Rate [m3/s], 0.15337
 Component Sizing Information, Coil:Heating:Water, COIL HEATING WATER 4, Maximum Water Flow Rate [m3/s], 1.10512E-004
 Component Sizing Information, Coil:Heating:Water, COIL HEATING WATER 4, Design Coil Load [W], 5086.91869
 Component Sizing Information, Coil:Heating:Water, COIL HEATING WATER 4, U-Factor Times Area Value [W/K], 106.53778
Water Heating Coil Capacity Information,Coil:Heating:Water,COIL HEATING WATER 4,4818.94
 Component Sizing Information, AirTerminal:SingleDuct:VAV:Reheat, AIR TERMINAL SINGLE DUCT VAV REHEAT 13, Maximum Air Flow Rate [m3/s], 0.19552
 Component Sizing Information, AirTerminal:SingleDuct:VAV:Reheat, AIR TERMINAL SINGLE DUCT VAV REHEAT 13, Maximum Flow per Zone Floor Area during Reheat [m3/s-m2], 2.03200E-003
 Component Sizing Information, AirTerminal:SingleDuct:VAV:Reheat, AIR TERMINAL SINGLE DUCT VAV REHEAT 13, Maximum Flow Fraction during Reheat [], 0.31892
 Component Sizing Information, AirTerminal:SingleDuct:VAV:Reheat, AIR TERMINAL SINGLE DUCT VAV REHEAT 13, Maximum Reheat Water Flow Rate [m3/s], 1.40888E-004
 Component Sizing Information, AirTerminal:SingleDuct:VAV:Reheat, AIR TERMINAL SINGLE DUCT VAV REHEAT 13, Reheat Coil Sizing Air Volume Flow Rate [m3/s], 0.19552
 Component Sizing Information, Coil:Heating:Water, COIL HEATING WATER 14, Maximum Water Flow Rate [m3/s], 1.40888E-004
 Component Sizing Information, Coil:Heating:Water, COIL HEATING WATER 14, Design Coil Load [W], 6485.09927
 Component Sizing Information, Coil:Heating:Water, COIL HEATING WATER 14, U-Factor Times Area Value [W/K], 135.82054
Water Heating Coil Capacity Information,Coil:Heating:Water,COIL HEATING WATER 14,6143.47
 Component Sizing Information, AirTerminal:SingleDuct:VAV:Reheat, AIR TERMINAL SINGLE DUCT VAV REHEAT 2, Maximum Air Flow Rate [m3/s], 0.15337
 Component Sizing Information, AirTerminal:SingleDuct:VAV:Reheat, AIR TERMINAL SINGLE DUCT VAV REHEAT 2, Maximum Flow per Zone Floor Area during Reheat [m3/s-m2], 2.03200E-003
 Component Sizing Information, AirTerminal:SingleDuct:VAV:Reheat, AIR TERMINAL SINGLE DUCT VAV REHEAT 2, Maximum Flow Fraction during Reheat [], 0.40657
 Component Sizing Information, AirTerminal:SingleDuct:VAV:Reheat, AIR TERMINAL SINGLE DUCT VAV REHEAT 2, Maximum Reheat Water Flow Rate [m3/s], 1.10512E-004
 Component Sizing Information, AirTerminal:SingleDuct:VAV:Reheat, AIR TERMINAL SINGLE DUCT VAV REHEAT 2, Reheat Coil Sizing Air Volume Flow Rate [m3/s], 0.15337
 Component Sizing Information, Coil:Heating:Water, COIL HEATING WATER 3, Maximum Water Flow Rate [m3/s], 1.10512E-004
 Component Sizing Information, Coil:Heating:Water, COIL HEATING WATER 3, Design Coil Load [W], 5086.91869
 Component Sizing Information, Coil:Heating:Water, COIL HEATING WATER 3, U-Factor Times Area Value [W/K], 106.53778
Water Heating Coil Capacity Information,Coil:Heating:Water,COIL HEATING WATER 3,4818.94
 Component Sizing Information, AirTerminal:SingleDuct:VAV:Reheat, AIR TERMINAL SINGLE DUCT VAV REHEAT 12, Maximum Air Flow Rate [m3/s], 0.14179
 Component Sizing Information, AirTerminal:SingleDuct:VAV:Reheat, AIR TERMINAL SINGLE DUCT VAV REHEAT 12, Maximum Flow per Zone Floor Area during Reheat [m3/s-m2], 2.03200E-003
 Component Sizing Information, AirTerminal:SingleDuct:VAV:Reheat, AIR TERMINAL SINGLE DUCT VAV REHEAT 12, Maximum Flow Fraction during Reheat [], 0.43975
 Component Sizing Information, AirTerminal:SingleDuct:VAV:Reheat, AIR TERMINAL SINGLE DUCT VAV REHEAT 12, Maximum Reheat Water Flow Rate [m3/s], 1.02174E-004
 Component Sizing Information, AirTerminal:SingleDuct:VAV:Reheat, AIR TERMINAL SINGLE DUCT VAV REHEAT 12, Reheat Coil Sizing Air Volume Flow Rate [m3/s], 0.14179
 Component Sizing Information, Coil:Heating:Water, COIL HEATING WATER 13, Maximum Water Flow Rate [m3/s], 1.02174E-004
 Component Sizing Information, Coil:Heating:Water, COIL HEATING WATER 13, Design Coil Load [W], 4703.10286
 Component Sizing Information, Coil:Heating:Water, COIL HEATING WATER 13, U-Factor Times Area Value [W/K], 98.49934
Water Heating Coil Capacity Information,Coil:Heating:Water,COIL HEATING WATER 13,4455.35
 Component Sizing Information, AirTerminal:SingleDuct:VAV:Reheat, AIR TERMINAL SINGLE DUCT VAV REHEAT 18, Maximum Air Flow Rate [m3/s], 0.15299
 Component Sizing Information, AirTerminal:SingleDuct:VAV:Reheat, AIR TERMINAL SINGLE DUCT VAV REHEAT 18, Maximum Flow per Zone Floor Area during Reheat [m3/s-m2], 2.03200E-003
 Component Sizing Information, AirTerminal:SingleDuct:VAV:Reheat, AIR TERMINAL SINGLE DUCT VAV REHEAT 18, Maximum Flow Fraction during Reheat [], 0.40758
 Component Sizing Information, AirTerminal:SingleDuct:VAV:Reheat, AIR TERMINAL SINGLE DUCT VAV REHEAT 18, Maximum Reheat Water Flow Rate [m3/s], 1.10240E-004
 Component Sizing Information, AirTerminal:SingleDuct:VAV:Reheat, AIR TERMINAL SINGLE DUCT VAV REHEAT 18, Reheat Coil Sizing Air Volume Flow Rate [m3/s], 0.15299
 Component Sizing Information, Coil:Heating:Water, COIL HEATING WATER 19, Maximum Water Flow Rate [m3/s], 1.10240E-004
 Component Sizing Information, Coil:Heating:Water, COIL HEATING WATER 19, Design Coil Load [W], 5074.38369
 Component Sizing Information, Coil:Heating:Water, COIL HEATING WATER 19, U-Factor Times Area Value [W/K], 106.27525
Water Heating Coil Capacity Information,Coil:Heating:Water,COIL HEATING WATER 19,4807.07
 Component Sizing Information, AirTerminal:SingleDuct:VAV:Reheat, AIR TERMINAL SINGLE DUCT VAV REHEAT 20, Maximum Air Flow Rate [m3/s], 0.14301
 Component Sizing Information, AirTerminal:SingleDuct:VAV:Reheat, AIR TERMINAL SINGLE DUCT VAV REHEAT 20, Maximum Flow per Zone Floor Area during Reheat [m3/s-m2], 2.03200E-003
 Component Sizing Information, AirTerminal:SingleDuct:VAV:Reheat, AIR TERMINAL SINGLE DUCT VAV REHEAT 20, Maximum Flow Fraction during Reheat [], 0.43601
 Component Sizing Information, AirTerminal:SingleDuct:VAV:Reheat, AIR TERMINAL SINGLE DUCT VAV REHEAT 20, Maximum Reheat Water Flow Rate [m3/s], 1.03051E-004
 Component Sizing Information, AirTerminal:SingleDuct:VAV:Reheat, AIR TERMINAL SINGLE DUCT VAV REHEAT 20, Reheat Coil Sizing Air Volume Flow Rate [m3/s], 0.14301
 Component Sizing Information, Coil:Heating:Water, COIL HEATING WATER 21, Maximum Water Flow Rate [m3/s], 1.03051E-004
 Component Sizing Information, Coil:Heating:Water, COIL HEATING WATER 21, Design Coil Load [W], 4743.49082
 Component Sizing Information, Coil:Heating:Water, COIL HEATING WATER 21, U-Factor Times Area Value [W/K], 99.34520
[...]
 Warmup Convergence Information,THERMAL ZONE 21,SizingPeriod: CHICAGO OHARE INTL AP ANN CLG 1% CONDNS DB=>MWB,4.0040842681E-002,5.1014972298E-002,Pass,Pass,6.9268056403E-003,6.1991998564E-003,Pass,Pass
 Warmup Convergence Information,THERMAL ZONE 4,SizingPeriod: CHICAGO OHARE INTL AP ANN CLG 1% CONDNS DB=>MWB,2.5358905175E-002,3.9728597782E-002,Pass,Pass,1.8602508672E-002,2.0279892647E-002,Pass,Pass
 Warmup Convergence Information,THERMAL ZONE 17,SizingPeriod: CHICAGO OHARE INTL AP ANN CLG 1% CONDNS DB=>MWB,3.0385463881E-002,6.6108995548E-002,Pass,Pass,1.5390685188E-002,1.6698906952E-002,Pass,Pass
 Warmup Convergence Information,THERMAL ZONE 20,SizingPeriod: CHICAGO OHARE INTL AP ANN CLG 1% CONDNS DB=>MWB,3.3820472920E-002,4.1217580160E-002,Pass,Pass,1.7911822528E-002,2.2024352397E-002,Pass,Pass
 Warmup Convergence Information,THERMAL ZONE 2,SizingPeriod: CHICAGO OHARE INTL AP ANN CLG 1% CONDNS DB=>MWB,3.8254958732E-002,7.3174231052E-002,Pass,Pass,1.4618258157E-002,1.3990978783E-002,Pass,Pass
 Warmup Convergence Information,THERMAL ZONE 18,SizingPeriod: CHICAGO OHARE INTL AP ANN CLG 1% CONDNS DB=>MWB,2.9548475530E-002,6.4944781836E-002,Pass,Pass,1.5697230081E-002,1.7304967819E-002,Pass,Pass
 Warmup Convergence Information,THERMAL ZONE 8,SizingPeriod: CHICAGO OHARE INTL AP ANN CLG 1% CONDNS DB=>MWB,7.2712364702E-005,1.4620573467E-004,Pass,Pass,4.7173402497E-003,1.0926648045E-002,Pass,Pass
 Warmup Convergence Information,THERMAL ZONE 22,SizingPeriod: CHICAGO OHARE INTL AP ANN CLG 1% CONDNS DB=>MWB,7.5402514558E-005,1.3262391498E-004,Pass,Pass,5.1088347456E-003,1.1690091562E-002,Pass,Pass
 Warmup Convergence Information,THERMAL ZONE 3,SizingPeriod: CHICAGO OHARE INTL AP ANN CLG 1% CONDNS DB=>MWB,3.2404415884E-002,4.7854673255E-002,Pass,Pass,7.9908885611E-003,7.4632752098E-003,Pass,Pass
 Warmup Convergence Information,THERMAL ZONE 12,SizingPeriod: CHICAGO OHARE INTL AP ANN CLG 1% CONDNS DB=>MWB,3.1236111403E-002,4.7059931435E-002,Pass,Pass,8.3441660683E-003,8.4947591130E-003,Pass,Pass
 Warmup Convergence Information,THERMAL ZONE 7,SizingPeriod: CHICAGO OHARE INTL AP ANN CLG 1% CONDNS DB=>MWB,3.8796097731E-002,5.2031065082E-002,Pass,Pass,1.4211288954E-002,1.3462306643E-002,Pass,Pass
 Warmup Convergence Information,THERMAL ZONE 19,SizingPeriod: CHICAGO OHARE INTL AP ANN CLG 1% CONDNS DB=>MWB,4.5733125712E-002,4.1696309797E-002,Pass,Pass,9.9379418037E-003,1.5093582814E-002,Pass,Pass
 Warmup Convergence Information,THERMAL ZONE 11,SizingPeriod: CHICAGO OHARE INTL AP ANN CLG 1% CONDNS DB=>MWB,5.8707878553E-002,7.5456101254E-002,Pass,Pass,8.9477347343E-003,8.8279166508E-003,Pass,Pass
 Warmup Convergence Information,THERMAL ZONE 25,SizingPeriod: CHICAGO OHARE INTL AP ANN CLG 1% CONDNS DB=>MWB,7.5418702830E-002,5.8615954633E-002,Pass,Pass,1.1727634795E-002,2.1270210236E-002,Pass,Pass
 Warmup Convergence Information,THERMAL ZONE 15,SizingPeriod: CHICAGO OHARE INTL AP ANN CLG 1% CONDNS DB=>MWB,3.0030023277E-002,4.5857225240E-002,Pass,Pass,1.5167094223E-002,1.8483181360E-002,Pass,Pass
 Warmup Convergence Information,THERMAL ZONE 5,SizingPeriod: CHICAGO OHARE INTL AP ANN CLG 1% CONDNS DB=>MWB,7.4556293485E-002,8.1919036692E-002,Pass,Pass,1.1761182260E-002,1.4431745708E-002,Pass,Pass
 Warmup Convergence Information,THERMAL ZONE 10,SizingPeriod: CHICAGO OHARE INTL AP ANN CLG 1% CONDNS DB=>MWB,2.6531431890E-002,3.9618658889E-002,Pass,Pass,1.8300077537E-002,2.0474268921E-002,Pass,Pass
 Warmup Convergence Information,THERMAL ZONE 13,SizingPeriod: CHICAGO OHARE INTL AP ANN CLG 1% CONDNS DB=>MWB,5.6500692326E-005,1.5301345142E-004,Pass,Pass,8.6996972670E-003,2.0671305092E-002,Pass,Pass
 Warmup Convergence Information,THERMAL ZONE 1,SizingPeriod: CHICAGO OHARE INTL AP ANN CLG 1% CONDNS DB=>MWB,5.3877641163E-002,4.1711485997E-002,Pass,Pass,3.9902229601E-003,3.5540691568E-003,Pass,Pass
 Warmup Convergence Information,THERMAL ZONE 6,SizingPeriod: CHICAGO OHARE INTL AP ANN CLG 1% CONDNS DB=>MWB,5.6840037808E-002,6.0388844897E-002,Pass,Pass,1.3135295546E-002,1.4533051670E-002,Pass,Pass
 Warmup Convergence Information,THERMAL ZONE 23,SizingPeriod: CHICAGO OHARE INTL AP ANN CLG 1% CONDNS DB=>MWB,7.2194683091E-005,1.4493475691E-004,Pass,Pass,4.6889086437E-003,1.0863634035E-002,Pass,Pass
 Warmup Convergence Information,THERMAL ZONE 14,SizingPeriod: CHICAGO OHARE INTL AP ANN CLG 1% CONDNS DB=>MWB,3.1039229605E-002,4.6070848721E-002,Pass,Pass,1.4843957810E-002,1.7217612249E-002,Pass,Pass
Environment,CHICAGO OHARE INTL AP ANN CLG 1% CONDNS WB=>MDB,SizingPeriod:DesignDay,07/21,07/21,SummerDesignDay,1,N/A,N/A,N/A,N/A,N/A,N/A
Environment:Daylight Saving,No,SizingPeriod:DesignDay
Environment:Design Day Data,29.60,10.50,DefaultMultipliers,98934,230,5.2,0.00,No ,No 
Environment:Design_Day_Misc,202,1084.4,0.2082,0.1365,1.0,-6.23,20.6,ASHRAETau
Environment:WarmupDays,  6
 Warmup Convergence Information,THERMAL ZONE 24,SizingPeriod: CHICAGO OHARE INTL AP ANN CLG 1% CONDNS WB=>MDB,2.2560488711E-002,2.6061843633E-002,Pass,Pass,1.6716623111E-002,4.1163981793E-002,Pass,Pass
 Warmup Convergence Information,THERMAL ZONE 9,SizingPeriod: CHICAGO OHARE INTL AP ANN CLG 1% CONDNS WB=>MDB,8.3579796895E-002,8.2652797207E-002,Pass,Pass,1.7065604924E-002,2.7909623654E-002,Pass,Pass
 Warmup Convergence Information,THERMAL ZONE 16,SizingPeriod: CHICAGO OHARE INTL AP ANN CLG 1% CONDNS WB=>MDB,7.3197860910E-002,6.1029922509E-002,Pass,Pass,7.9320160313E-003,6.0749560844E-003,Pass,Pass
 Warmup Convergence Information,THERMAL ZONE 21,SizingPeriod: CHICAGO OHARE INTL AP ANN CLG 1% CONDNS WB=>MDB,5.0384957556E-002,5.5506869678E-002,Pass,Pass,5.7824896797E-003,6.0679332484E-003,Pass,Pass
 Warmup Convergence Information,THERMAL ZONE 4,SizingPeriod: CHICAGO OHARE INTL AP ANN CLG 1% CONDNS WB=>MDB,3.5271823883E-002,4.5215430269E-002,Pass,Pass,1.8134715742E-002,2.5047644414E-002,Pass,Pass
 Warmup Convergence Information,THERMAL ZONE 17,SizingPeriod: CHICAGO OHARE INTL AP ANN CLG 1% CONDNS WB=>MDB,4.0404267681E-002,7.9944802059E-002,Pass,Pass,1.4476913567E-002,1.4022695432E-002,Pass,Pass
 Warmup Convergence Information,THERMAL ZONE 20,SizingPeriod: CHICAGO OHARE INTL AP ANN CLG 1% CONDNS WB=>MDB,4.3838164121E-002,4.8844359221E-002,Pass,Pass,1.7393733021E-002,2.4901192771E-002,Pass,Pass
 Warmup Convergence Information,THERMAL ZONE 2,SizingPeriod: CHICAGO OHARE INTL AP ANN CLG 1% CONDNS WB=>MDB,4.8086002470E-002,8.4047467794E-002,Pass,Pass,1.3781823533E-002,1.3653895628E-002,Pass,Pass
 Warmup Convergence Information,THERMAL ZONE 18,SizingPeriod: CHICAGO OHARE INTL AP ANN CLG 1% CONDNS WB=>MDB,3.9182821670E-002,7.9003113022E-002,Pass,Pass,1.4862260700E-002,1.5247459467E-002,Pass,Pass
 Warmup Convergence Information,THERMAL ZONE 8,SizingPeriod: CHICAGO OHARE INTL AP ANN CLG 1% CONDNS WB=>MDB,8.0313405891E-005,1.8040259802E-004,Pass,Pass,4.9015156435E-003,1.1194103775E-002,Pass,Pass
 Warmup Convergence Information,THERMAL ZONE 22,SizingPeriod: CHICAGO OHARE INTL AP ANN CLG 1% CONDNS WB=>MDB,8.1851201541E-005,1.8743939941E-004,Pass,Pass,5.7549300706E-003,1.2063469103E-002,Pass,Pass
 Warmup Convergence Information,THERMAL ZONE 3,SizingPeriod: CHICAGO OHARE INTL AP ANN CLG 1% CONDNS WB=>MDB,4.3010506339E-002,5.6915638264E-002,Pass,Pass,6.8989761721E-003,6.7839843903E-003,Pass,Pass
 Warmup Convergence Information,THERMAL ZONE 12,SizingPeriod: CHICAGO OHARE INTL AP ANN CLG 1% CONDNS WB=>MDB,4.1346924754E-002,5.7770468031E-002,Pass,Pass,7.3463723262E-003,6.8452128499E-003,Pass,Pass
 Warmup Convergence Information,THERMAL ZONE 7,SizingPeriod: CHICAGO OHARE INTL AP ANN CLG 1% CONDNS WB=>MDB,4.8926185933E-002,6.4804434066E-002,Pass,Pass,1.3442184100E-002,1.1359066680E-002,Pass,Pass
 Warmup Convergence Information,THERMAL ZONE 19,SizingPeriod: CHICAGO OHARE INTL AP ANN CLG 1% CONDNS WB=>MDB,4.0188492748E-002,4.3485800568E-002,Pass,Pass,1.4002208314E-002,2.6975918288E-002,Pass,Pass
 Warmup Convergence Information,THERMAL ZONE 11,SizingPeriod: CHICAGO OHARE INTL AP ANN CLG 1% CONDNS WB=>MDB,7.1148458406E-002,8.0650120768E-002,Pass,Pass,7.4098822054E-003,7.4685227837E-003,Pass,Pass
 Warmup Convergence Information,THERMAL ZONE 25,SizingPeriod: CHICAGO OHARE INTL AP ANN CLG 1% CONDNS WB=>MDB,6.9285073708E-002,6.3699971703E-002,Pass,Pass,1.5569539028E-002,2.8919657554E-002,Pass,Pass
 Warmup Convergence Information,THERMAL ZONE 15,SizingPeriod: CHICAGO OHARE INTL AP ANN CLG 1% CONDNS WB=>MDB,4.0138393539E-002,5.7390098214E-002,Pass,Pass,1.4416563210E-002,1.3785192298E-002,Pass,Pass
 Warmup Convergence Information,THERMAL ZONE 5,SizingPeriod: CHICAGO OHARE INTL AP ANN CLG 1% CONDNS WB=>MDB,6.8735394423E-002,8.0929098413E-002,Pass,Pass,1.5589953482E-002,1.9693914142E-002,Pass,Pass
 Warmup Convergence Information,THERMAL ZONE 10,SizingPeriod: CHICAGO OHARE INTL AP ANN CLG 1% CONDNS WB=>MDB,3.6820633880E-002,4.5507072230E-002,Pass,Pass,1.7781713420E-002,2.5168712444E-002,Pass,Pass
 Warmup Convergence Information,THERMAL ZONE 13,SizingPeriod: CHICAGO OHARE INTL AP ANN CLG 1% CONDNS WB=>MDB,9.3204091260E-005,2.4014283428E-004,Pass,Pass,1.0308804377E-002,2.6164300541E-002,Pass,Pass
 Warmup Convergence Information,THERMAL ZONE 1,SizingPeriod: CHICAGO OHARE INTL AP ANN CLG 1% CONDNS WB=>MDB,5.7511079757E-002,5.0768759554E-002,Pass,Pass,4.4375047752E-003,4.7113102436E-003,Pass,Pass
 Warmup Convergence Information,THERMAL ZONE 6,SizingPeriod: CHICAGO OHARE INTL AP ANN CLG 1% CONDNS WB=>MDB,6.9381242366E-002,6.7853488408E-002,Pass,Pass,1.2339755423E-002,1.3592299099E-002,Pass,Pass
 Warmup Convergence Information,THERMAL ZONE 23,SizingPeriod: CHICAGO OHARE INTL AP ANN CLG 1% CONDNS WB=>MDB,7.8017040053E-005,1.8106317799E-004,Pass,Pass,4.9155604706E-003,1.1170890123E-002,Pass,Pass
 Warmup Convergence Information,THERMAL ZONE 14,SizingPeriod: CHICAGO OHARE INTL AP ANN CLG 1% CONDNS WB=>MDB,4.1529225132E-002,5.8660853286E-002,Pass,Pass,1.4012211550E-002,1.2735347221E-002,Pass,Pass
Environment,CHICAGO OHARE INTL AP ANN CLG .4% CONDNS ENTH=>MDB,SizingPeriod:DesignDay,07/21,07/21,SummerDesignDay,1,N/A,N/A,N/A,N/A,N/A,N/A
Environment:Daylight Saving,No,SizingPeriod:DesignDay
Environment:Design Day Data,31.40,10.50,DefaultMultipliers,98934,230,5.2,0.00,No ,No 
Environment:Design_Day_Misc,202,1084.4,0.2082,0.1365,1.0,-6.23,20.6,ASHRAETau
Environment:WarmupDays,  6
 Warmup Convergence Information,THERMAL ZONE 24,SizingPeriod: CHICAGO OHARE INTL AP ANN CLG .4% CONDNS ENTH=>MDB,2.0203770307E-002,2.5558322818E-002,Pass,Pass,1.8261866717E-002,4.3953917269E-002,Pass,Pass
 Warmup Convergence Information,THERMAL ZONE 9,SizingPeriod: CHICAGO OHARE INTL AP ANN CLG .4% CONDNS ENTH=>MDB,8.3590674019E-002,7.6636762282E-002,Pass,Pass,1.4940927561E-002,2.2308838005E-002,Pass,Pass
 Warmup Convergence Information,THERMAL ZONE 16,SizingPeriod: CHICAGO OHARE INTL AP ANN CLG .4% CONDNS ENTH=>MDB,6.1531253741E-002,5.8463133690E-002,Pass,Pass,9.1418391224E-003,7.7086343899E-003,Pass,Pass
 Warmup Convergence Information,THERMAL ZONE 21,SizingPeriod: CHICAGO OHARE INTL AP ANN CLG .4% CONDNS ENTH=>MDB,4.0842226229E-002,5.1772483469E-002,Pass,Pass,6.9270587506E-003,6.1813513458E-003,Pass,Pass
 Warmup Convergence Information,THERMAL ZONE 4,SizingPeriod: CHICAGO OHARE INTL AP ANN CLG .4% CONDNS ENTH=>MDB,2.6226445642E-002,4.0282360390E-002,Pass,Pass,1.8608918947E-002,2.0588519429E-002,Pass,Pass
 Warmup Convergence Information,THERMAL ZONE 17,SizingPeriod: CHICAGO OHARE INTL AP ANN CLG .4% CONDNS ENTH=>MDB,3.1160511370E-002,6.7122772924E-002,Pass,Pass,1.5349837357E-002,1.6392052315E-002,Pass,Pass
 Warmup Convergence Information,THERMAL ZONE 20,SizingPeriod: CHICAGO OHARE INTL AP ANN CLG .4% CONDNS ENTH=>MDB,3.4682221798E-002,4.1794955745E-002,Pass,Pass,1.7925913773E-002,2.2279764797E-002,Pass,Pass
 Warmup Convergence Information,THERMAL ZONE 2,SizingPeriod: CHICAGO OHARE INTL AP ANN CLG .4% CONDNS ENTH=>MDB,3.8996809498E-002,7.4319016811E-002,Pass,Pass,1.4579042599E-002,1.3911277705E-002,Pass,Pass
 Warmup Convergence Information,THERMAL ZONE 18,SizingPeriod: CHICAGO OHARE INTL AP ANN CLG .4% CONDNS ENTH=>MDB,3.0303525886E-002,6.6584054227E-002,Pass,Pass,1.5644690953E-002,1.7236551723E-002,Pass,Pass
 Warmup Convergence Information,THERMAL ZONE 8,SizingPeriod: CHICAGO OHARE INTL AP ANN CLG .4% CONDNS ENTH=>MDB,6.3638454262E-005,1.4901806333E-004,Pass,Pass,4.7382203085E-003,1.0931579106E-002,Pass,Pass
 Warmup Convergence Information,THERMAL ZONE 22,SizingPeriod: CHICAGO OHARE INTL AP ANN CLG .4% CONDNS ENTH=>MDB,6.8690663653E-005,1.3334758531E-004,Pass,Pass,5.1552435229E-003,1.1700806259E-002,Pass,Pass
 Warmup Convergence Information,THERMAL ZONE 3,SizingPeriod: CHICAGO OHARE INTL AP ANN CLG .4% CONDNS ENTH=>MDB,3.3231943822E-002,4.8965988020E-002,Pass,Pass,7.9811019108E-003,7.3973497206E-003,Pass,Pass
 Warmup Convergence Information,THERMAL ZONE 12,SizingPeriod: CHICAGO OHARE INTL AP ANN CLG .4% CONDNS ENTH=>MDB,3.2031674303E-002,4.8045286721E-002,Pass,Pass,8.3423332665E-003,8.3016488007E-003,Pass,Pass
 Warmup Convergence Information,THERMAL ZONE 7,SizingPeriod: CHICAGO OHARE INTL AP ANN CLG .4% CONDNS ENTH=>MDB,3.9625926275E-002,5.3010701923E-002,Pass,Pass,1.4197949452E-002,1.2943116003E-002,Pass,Pass
 Warmup Convergence Information,THERMAL ZONE 19,SizingPeriod: CHICAGO OHARE INTL AP ANN CLG .4% CONDNS ENTH=>MDB,4.5585214815E-002,4.1987104712E-002,Pass,Pass,1.0245842031E-002,1.5767701562E-002,Pass,Pass
 Warmup Convergence Information,THERMAL ZONE 11,SizingPeriod: CHICAGO OHARE INTL AP ANN CLG .4% CONDNS ENTH=>MDB,5.9639351083E-002,7.6109480124E-002,Pass,Pass,8.8677091900E-003,8.4122579724E-003,Pass,Pass
 Warmup Convergence Information,THERMAL ZONE 25,SizingPeriod: CHICAGO OHARE INTL AP ANN CLG .4% CONDNS ENTH=>MDB,7.5070140146E-002,5.9589278650E-002,Pass,Pass,1.2035950004E-002,2.2023673771E-002,Pass,Pass
 Warmup Convergence Information,THERMAL ZONE 15,SizingPeriod: CHICAGO OHARE INTL AP ANN CLG .4% CONDNS ENTH=>MDB,3.0873736468E-002,4.6548687570E-002,Pass,Pass,1.5148829007E-002,1.7941984756E-002,Pass,Pass
 Warmup Convergence Information,THERMAL ZONE 5,SizingPeriod: CHICAGO OHARE INTL AP ANN CLG .4% CONDNS ENTH=>MDB,7.4126171897E-002,8.2708919449E-002,Pass,Pass,1.2048865857E-002,1.4827541505E-002,Pass,Pass
 Warmup Convergence Information,THERMAL ZONE 10,SizingPeriod: CHICAGO OHARE INTL AP ANN CLG .4% CONDNS ENTH=>MDB,2.7425434894E-002,4.0192210497E-002,Pass,Pass,1.8300487075E-002,2.0864047100E-002,Pass,Pass
 Warmup Convergence Information,THERMAL ZONE 13,SizingPeriod: CHICAGO OHARE INTL AP ANN CLG .4% CONDNS ENTH=>MDB,9.3734769544E-005,1.7239932757E-004,Pass,Pass,8.8192249792E-003,2.1085717442E-002,Pass,Pass
 Warmup Convergence Information,THERMAL ZONE 1,SizingPeriod: CHICAGO OHARE INTL AP ANN CLG .4% CONDNS ENTH=>MDB,5.4364371122E-002,4.2827071917E-002,Pass,Pass,4.0529247461E-003,3.5914872437E-003,Pass,Pass
 Warmup Convergence Information,THERMAL ZONE 6,SizingPeriod: CHICAGO OHARE INTL AP ANN CLG .4% CONDNS ENTH=>MDB,5.7897578508E-002,6.1200870758E-002,Pass,Pass,1.3106903280E-002,1.4350153750E-002,Pass,Pass
 Warmup Convergence Information,THERMAL ZONE 23,SizingPeriod: CHICAGO OHARE INTL AP ANN CLG .4% CONDNS ENTH=>MDB,6.3192342682E-005,1.4778099913E-004,Pass,Pass,4.7093262229E-003,1.0869940992E-002,Pass,Pass
 Warmup Convergence Information,THERMAL ZONE 14,SizingPeriod: CHICAGO OHARE INTL AP ANN CLG .4% CONDNS ENTH=>MDB,3.1905850141E-002,4.7189522383E-002,Pass,Pass,1.4821229421E-002,1.7138463669E-002,Pass,Pass
Environment,RUN PERIOD 1,WeatherFileRunPeriod,01/01,12/31,Thursday,365,Use RunPeriod Specified Day,Yes,Yes,No ,Yes,Yes
Environment:Daylight Saving,Yes,InputFile,03/08,11/01
Environment:WarmupDays,  6
 Warmup Convergence Information,THERMAL ZONE 24,RunPeriod: RUN PERIOD 1,4.3480898205E-002,0.1010878907,Pass,Pass,8.6694742746E-002,0.3182661784,Pass,Pass
 Warmup Convergence Information,THERMAL ZONE 9,RunPeriod: RUN PERIOD 1,1.9565760290E-003,1.4733879103E-003,Pass,Pass,5.5065401773E-002,0.1230898823,Pass,Pass
 Warmup Convergence Information,THERMAL ZONE 16,RunPeriod: RUN PERIOD 1,2.7542538493E-003,2.4826401109E-003,Pass,Pass,0.2398938757,0.6312874318,Pass,Pass
 Warmup Convergence Information,THERMAL ZONE 21,RunPeriod: RUN PERIOD 1,1.8413202728E-003,1.7819501884E-003,Pass,Pass,0.1241609679,0.2896195079,Pass,Pass
 Warmup Convergence Information,THERMAL ZONE 4,RunPeriod: RUN PERIOD 1,1.8991160210E-003,1.8881089111E-003,Pass,Pass,0.1694016215,0.5787047520,Pass,Pass
 Warmup Convergence Information,THERMAL ZONE 17,RunPeriod: RUN PERIOD 1,1.9530330498E-003,1.9918902057E-003,Pass,Pass,0.1634720742,0.4933696360,Pass,Pass
 Warmup Convergence Information,THERMAL ZONE 20,RunPeriod: RUN PERIOD 1,1.6429429182E-003,1.5588947128E-003,Pass,Pass,0.2010787913,0.8412572152,Pass,Pass
 Warmup Convergence Information,THERMAL ZONE 2,RunPeriod: RUN PERIOD 1,2.1306669061E-003,1.7746694567E-003,Pass,Pass,0.1695558541,0.5362814552,Pass,Pass
 Warmup Convergence Information,THERMAL ZONE 18,RunPeriod: RUN PERIOD 1,2.0040518386E-003,1.6857199124E-003,Pass,Pass,0.4356215161,2.9641770637,Pass,Pass
 Warmup Convergence Information,THERMAL ZONE 8,RunPeriod: RUN PERIOD 1,6.2458305311E-002,0.1363415745,Pass,Pass,3.2945242904E-002,7.2839097498E-002,Pass,Pass
 Warmup Convergence Information,THERMAL ZONE 22,RunPeriod: RUN PERIOD 1,6.1430885072E-002,0.1332619338,Pass,Pass,3.9534270992E-002,8.6090967559E-002,Pass,Pass
 Warmup Convergence Information,THERMAL ZONE 3,RunPeriod: RUN PERIOD 1,2.1119388998E-003,2.0009703468E-003,Pass,Pass,0.1109781656,0.2642393527,Pass,Pass
 Warmup Convergence Information,THERMAL ZONE 12,RunPeriod: RUN PERIOD 1,1.9524228696E-003,1.8920070502E-003,Pass,Pass,0.2435916384,0.9641885933,Pass,Pass
 Warmup Convergence Information,THERMAL ZONE 7,RunPeriod: RUN PERIOD 1,2.0209403593E-003,2.0292550653E-003,Pass,Pass,0.2195090053,0.7358958460,Pass,Pass
 Warmup Convergence Information,THERMAL ZONE 19,RunPeriod: RUN PERIOD 1,1.8890880187E-003,1.6917056382E-003,Pass,Pass,4.4405868589E-002,0.1172785638,Pass,Pass
 Warmup Convergence Information,THERMAL ZONE 11,RunPeriod: RUN PERIOD 1,2.5332904073E-003,2.3999384561E-003,Pass,Pass,7.7285680070E-002,0.1724626557,Pass,Pass
 Warmup Convergence Information,THERMAL ZONE 25,RunPeriod: RUN PERIOD 1,2.2446818356E-003,1.8931164759E-003,Pass,Pass,0.2624618069,0.8224906336,Pass,Pass
 Warmup Convergence Information,THERMAL ZONE 15,RunPeriod: RUN PERIOD 1,1.9559869945E-003,1.8974285002E-003,Pass,Pass,0.2061038113,0.6850222471,Pass,Pass
 Warmup Convergence Information,THERMAL ZONE 5,RunPeriod: RUN PERIOD 1,1.7071802150E-003,1.5585939287E-003,Pass,Pass,0.3333590933,1.7168751138,Pass,Pass
 Warmup Convergence Information,THERMAL ZONE 10,RunPeriod: RUN PERIOD 1,2.3879664405E-003,2.1017697746E-003,Pass,Pass,0.5354549706,4.1397102500,Pass,Pass
 Warmup Convergence Information,THERMAL ZONE 13,RunPeriod: RUN PERIOD 1,2.3781121538E-002,6.8757994003E-002,Pass,Pass,0.4372660384,2.4596408467,Pass,Pass
 Warmup Convergence Information,THERMAL ZONE 1,RunPeriod: RUN PERIOD 1,2.7484385288E-003,1.9753726233E-003,Pass,Pass,4.4897057680E-002,0.1264392957,Pass,Pass
 Warmup Convergence Information,THERMAL ZONE 6,RunPeriod: RUN PERIOD 1,2.6147796243E-003,2.2900121748E-003,Pass,Pass,5.0194503010E-002,0.1295282363,Pass,Pass
 Warmup Convergence Information,THERMAL ZONE 23,RunPeriod: RUN PERIOD 1,5.8771819545E-002,0.1319430269,Pass,Pass,3.8305932896E-002,8.5231197713E-002,Pass,Pass
 Warmup Convergence Information,THERMAL ZONE 14,RunPeriod: RUN PERIOD 1,1.8836149018E-003,1.8141013670E-003,Pass,Pass,0.2438164559,1.0052320779,Pass,Pass
! <Program Control Information:Threads/Parallel Sims>, Threading Supported,Maximum Number of Threads, Env Set Threads (OMP_NUM_THREADS), EP Env Set Threads (EP_OMP_NUM_THREADS), IDF Set Threads, Number of Threads Used (Interior Radiant Exchange), Number Nominal Surfaces, Number Parallel Sims
Program Control:Threads/Parallel Sims, Yes,1, Not Set, Not Set, 1, 1, 170, N/A
End of Data
