Program Version,EnergyPlus-Linux-OMP-32 7.2.0.006, YMD=2013.05.11 15:06
! <Version>, Version ID
 Version, 7.2
! <Timesteps per Hour>, #TimeSteps, Minutes per TimeStep {minutes}
 Timesteps per Hour,  4, 15
! <System Convergence Limits>, Minimum System TimeStep {minutes}, Max HVAC Iterations,  Minimum Plant Iterations, Maximum Plant Iterations
 System Convergence Limits, 1, 20, 2, 8
! <Simulation Control>, Do Zone Sizing, Do System Sizing, Do Plant Sizing, Do Design Days, Do Weather Simulation
 Simulation Control, Yes, Yes, Yes, Yes, Yes
! <Output Reporting Tolerances>, Tolerance for Time Heating Setpoint Not Met, Tolerance for Time Cooling Setpoint Not Met
 Output Reporting Tolerances, 0.200, 0.200, 
! <Site:GroundTemperature:BuildingSurface>, Months From Jan to Dec {Deg C}
 Site:GroundTemperature:BuildingSurface,  18.00,  18.00,  18.00,  18.00,  18.00,  18.00,  18.00,  18.00,  18.00,  18.00,  18.00,  18.00
! <Site:GroundTemperature:FCfactorMethod>, Months From Jan to Dec {Deg C}
 Site:GroundTemperature:FCfactorMethod,  13.01,  15.04,  18.98,  22.72,  29.80,  33.52,  34.55,  32.66,  28.30,  22.86,  17.51,  13.97
! <Site:GroundTemperature:Shallow>, Months From Jan to Dec {Deg C}
 Site:GroundTemperature:Shallow,  13.00,  13.00,  13.00,  13.00,  13.00,  13.00,  13.00,  13.00,  13.00,  13.00,  13.00,  13.00
! <Site:GroundTemperature:Deep>, Months From Jan to Dec {Deg C}
 Site:GroundTemperature:Deep,  16.00,  16.00,  16.00,  16.00,  16.00,  16.00,  16.00,  16.00,  16.00,  16.00,  16.00,  16.00
! <Site:GroundReflectance>, Months From Jan to Dec {dimensionless}
 Site:GroundReflectance,  0.20,  0.20,  0.20,  0.20,  0.20,  0.20,  0.20,  0.20,  0.20,  0.20,  0.20,  0.20
! <Site:GroundReflectance:SnowModifier>, Normal, Daylighting {dimensionless}
 Site:GroundReflectance:SnowModifier,   1.000,   1.000
! <Site:GroundReflectance:Snow>, Months From Jan to Dec {dimensionless}
 Site:GroundReflectance:Snow,  0.20,  0.20,  0.20,  0.20,  0.20,  0.20,  0.20,  0.20,  0.20,  0.20,  0.20,  0.20
! <Site:GroundReflectance:Snow:Daylighting>, Months From Jan to Dec {dimensionless}
 Site:GroundReflectance:Snow:Daylighting,  0.20,  0.20,  0.20,  0.20,  0.20,  0.20,  0.20,  0.20,  0.20,  0.20,  0.20,  0.20
! <Environment:Weather Station>,Wind Sensor Height Above Ground {m},Wind Speed Profile Exponent {},Wind Speed Profile Boundary Layer Thickness {m},Air Temperature Sensor Height Above Ground {m},Wind Speed Modifier Coefficient [Internal],Temperature Modifier Coefficient [Internal]
Environment:Weather Station,10.000,0.140,270.000,1.500,1.586,9.750E-003
! <Site:Location>, Location Name, Latitude {N+/S- Deg}, Longitude {E+/W- Deg},  Time Zone Number {GMT+/-}, Elevation {m},  Standard Pressure at Elevation {Pa}, Standard RhoAir at Elevation
Site:Location,Phoenix Sky Harbor Intl Ap AZ USA TMY3 WMO#=722780,33.45,-111.98,-7.00,337.00,97342,1.1570
! <Building Information>, Building Name,North Axis {deg},Terrain,  Loads Convergence Tolerance Value,Temperature Convergence Tolerance Value,  Solar Distribution,Maximum Number of Warmup Days,Minimum Number of Warmup Days
 Building Information,Building 1,0.000,Suburbs,4.00000E-002,0.40000,FullExterior,25,6
! <Inside Convection Algorithm>, Algorithm {Simple | TARP | CeilingDiffuser | AdaptiveConvectionAlgorithm}
Inside Convection Algorithm,TARP
! <Outside Convection Algorithm>, Algorithm {SimpleCombined | TARP | MoWitt | DOE-2 | AdaptiveConvectionAlgorithm}
Outside Convection Algorithm,DOE-2
! <Sky Radiance Distribution>, Value {Anisotropic}
Sky Radiance Distribution,Anisotropic
! <Zone Air Solution Algorithm>, Value {ThirdOrderBackwardDifference | AnalyticalSolution | EulerMethod}
 Zone Air Solution Algorithm, ThirdOrderBackwardDifference
! <Zone Air Contaminant Balance Simulation>, Simulation {Yes/No}, Carbon Dioxide Concentration
 Zone Air Carbon Dioxide Balance Simulation, No,N/A
! <Zone Air Contaminant Balance Simulation>, Simulation {Yes/No}, Generic Contaminant Concentration
 Zone Air Generic Contaminant Balance Simulation, No,N/A
! <Environment:Site Atmospheric Variation>,Wind Speed Profile Exponent {},Wind Speed Profile Boundary Layer Thickness {m},Air Temperature Gradient Coefficient {K/m}
Environment:Site Atmospheric Variation,0.220,370.000,6.500000E-003
! <SurfaceGeometry>,Starting Corner,Vertex Input Direction,Coordinate System,Daylight Reference Point Coordinate System,Rectangular (Simple) Surface Coordinate System
 Surface Geometry,UpperLeftCorner,Counterclockwise,RelativeCoordinateSystem,RelativeCoordinateSystem,RelativeToZoneOrigin
! <Surface Heat Transfer Algorithm>, Value {CTF - ConductionTransferFunction | EMPD - MoisturePenetrationDepthConductionTransferFunction | CondFD - ConductionFiniteDifference | HAMT - CombinedHeatAndMoistureFiniteElement} - Description,Inside Surface Max Temperature Limit{C}, Surface Convection Coefficient Lower Limit {W/m2-K}, Surface Convection Coefficient Upper Limit {W/m2-K}
Surface Heat Transfer Algorithm, CTF - ConductionTransferFunction,200,0.10,1000.0
! <Shading Summary>, Number of Fixed Detached Shades, Number of Building Detached Shades, Number of Attached Shades
 Shading Summary,0,0,0
! <Zone Summary>, Number of Zones, Number of Zone Surfaces, Number of SubSurfaces
 Zone Summary,15,102,12
! <Zone Information>,Zone Name,North Axis {deg},Origin X-Coordinate {m},Origin Y-Coordinate {m},Origin Z-Coordinate {m},Centroid X-Coordinate {m},Centroid Y-Coordinate {m},Centroid Z-Coordinate {m},Type,Zone Multiplier,Zone List Multiplier,Minimum X {m},Maximum X {m},Minimum Y {m},Maximum Y {m},Minimum Z {m},Maximum Z {m},Ceiling Height {m},Volume {m3},Zone Inside Convection Algorithm {Simple-Detailed-CeilingDiffuser-TrombeWall},Zone Outside Convection Algorithm {Simple-Detailed-Tarp-MoWitt-DOE-2-BLAST}, Floor Area {m2},Exterior Gross Wall Area {m2},Exterior Net Wall Area {m2},Exterior Window Area {m2}, Number of Surfaces, Number of SubSurfaces, Number of Shading SubSurfaces,  Part of Total Building Area
 Zone Information, THERMAL ZONE 4,0.0,0.00,0.00,8.00,1.43,25.00,10.00,1,1,1,0.00,3.00,0.00,50.00,8.00,12.00,4.00,564.00,TARP,DOE-2,141.00,200.00,120.00,80.00,6,1,0,Yes
 Zone Information, THERMAL ZONE 3,0.0,97.00,3.00,0.00,98.57,25.00,2.00,1,1,1,97.00,100.00,0.00,50.00,0.00,4.00,4.00,564.00,TARP,DOE-2,141.00,200.00,120.00,80.00,6,1,0,Yes
 Zone Information, THERMAL ZONE 9,0.0,0.00,0.00,0.00,50.00,1.47,2.00,1,1,1,0.00,100.00,0.00,3.00,0.00,4.00,4.00,1164.00,TARP,DOE-2,291.00,400.00,240.00,160.00,6,1,0,Yes
 Zone Information, THERMAL ZONE 13,0.0,3.00,3.00,4.00,50.00,25.00,6.00,1,1,1,3.00,97.00,3.00,47.00,4.00,8.00,4.00,16544.00,TARP,DOE-2,4136.00,0.00,0.00,0.00,6,0,0,Yes
 Zone Information, THERMAL ZONE 6,0.0,3.00,3.00,0.00,50.00,25.00,2.00,1,1,1,3.00,97.00,3.00,47.00,0.00,4.00,4.00,16544.00,TARP,DOE-2,4136.00,0.00,0.00,0.00,6,0,0,Yes
 Zone Information, THERMAL ZONE 15,0.0,3.00,3.00,8.00,50.00,25.00,10.00,1,1,1,3.00,97.00,3.00,47.00,8.00,12.00,4.00,16544.00,TARP,DOE-2,4136.00,0.00,0.00,0.00,6,0,0,Yes
 Zone Information, THERMAL ZONE 7,0.0,3.00,47.00,8.00,50.00,48.53,10.00,1,1,1,0.00,100.00,47.00,50.00,8.00,12.00,4.00,1164.00,TARP,DOE-2,291.00,400.00,240.00,160.00,6,1,0,Yes
 Zone Information, THERMAL ZONE 10,0.0,3.00,47.00,4.00,50.00,48.53,6.00,1,1,1,0.00,100.00,47.00,50.00,4.00,8.00,4.00,1164.00,TARP,DOE-2,291.00,400.00,240.00,160.00,6,1,0,Yes
 Zone Information, THERMAL ZONE 5,0.0,0.00,0.00,0.00,1.43,25.00,2.00,1,1,1,0.00,3.00,0.00,50.00,0.00,4.00,4.00,564.00,TARP,DOE-2,141.00,200.00,120.00,80.00,6,1,0,Yes
 Zone Information, THERMAL ZONE 1,0.0,0.00,0.00,4.00,50.00,1.47,6.00,1,1,1,0.00,100.00,0.00,3.00,4.00,8.00,4.00,1164.00,TARP,DOE-2,291.00,400.00,240.00,160.00,6,1,0,Yes
 Zone Information, THERMAL ZONE 14,0.0,0.00,0.00,4.00,1.43,25.00,6.00,1,1,1,0.00,3.00,0.00,50.00,4.00,8.00,4.00,564.00,TARP,DOE-2,141.00,200.00,120.00,80.00,6,1,0,Yes
 Zone Information, THERMAL ZONE 11,0.0,0.00,0.00,8.00,50.00,1.47,10.00,1,1,1,0.00,100.00,0.00,3.00,8.00,12.00,4.00,1164.00,TARP,DOE-2,291.00,400.00,240.00,160.00,6,1,0,Yes
 Zone Information, THERMAL ZONE 2,0.0,97.00,3.00,4.00,98.57,25.00,6.00,1,1,1,97.00,100.00,0.00,50.00,4.00,8.00,4.00,564.00,TARP,DOE-2,141.00,200.00,120.00,80.00,6,1,0,Yes
 Zone Information, THERMAL ZONE 8,0.0,97.00,3.00,8.00,98.57,25.00,10.00,1,1,1,97.00,100.00,0.00,50.00,8.00,12.00,4.00,564.00,TARP,DOE-2,141.00,200.00,120.00,80.00,6,1,0,Yes
 Zone Information, THERMAL ZONE 12,0.0,3.00,47.00,0.00,50.00,48.53,2.00,1,1,1,0.00,100.00,47.00,50.00,0.00,4.00,4.00,1164.00,TARP,DOE-2,291.00,400.00,240.00,160.00,6,1,0,Yes
! <Zone Internal Gains/Equipment Information - Nominal>,Zone Name, Floor Area {m2},# Occupants,Area per Occupant {m2/person},Occupant per Area {person/m2},Interior Lighting {W/m2},Electric Load {W/m2},Gas Load {W/m2},Other Load {W/m2},Hot Water Eq {W/m2},Steam Equipment {W/m2},Sum Loads per Area {W/m2},Outdoor Controlled Baseboard Heat
 Zone Internal Gains, THERMAL ZONE 4,141.00,0.0,N/A,0.000,0.000,0.000,0.000,0.000,0.000,0.000,0.000,No
 Zone Internal Gains, THERMAL ZONE 3,141.00,0.0,N/A,0.000,0.000,0.000,0.000,0.000,0.000,0.000,0.000,No
 Zone Internal Gains, THERMAL ZONE 9,291.00,0.0,N/A,0.000,0.000,0.000,0.000,0.000,0.000,0.000,0.000,No
 Zone Internal Gains, THERMAL ZONE 13,4136.00,0.0,N/A,0.000,0.000,0.000,0.000,0.000,0.000,0.000,0.000,No
 Zone Internal Gains, THERMAL ZONE 6,4136.00,0.0,N/A,0.000,0.000,0.000,0.000,0.000,0.000,0.000,0.000,No
 Zone Internal Gains, THERMAL ZONE 15,4136.00,0.0,N/A,0.000,0.000,0.000,0.000,0.000,0.000,0.000,0.000,No
 Zone Internal Gains, THERMAL ZONE 7,291.00,0.0,N/A,0.000,0.000,0.000,0.000,0.000,0.000,0.000,0.000,No
 Zone Internal Gains, THERMAL ZONE 10,291.00,0.0,N/A,0.000,0.000,0.000,0.000,0.000,0.000,0.000,0.000,No
 Zone Internal Gains, THERMAL ZONE 5,141.00,0.0,N/A,0.000,0.000,0.000,0.000,0.000,0.000,0.000,0.000,No
 Zone Internal Gains, THERMAL ZONE 1,291.00,0.0,N/A,0.000,0.000,0.000,0.000,0.000,0.000,0.000,0.000,No
 Zone Internal Gains, THERMAL ZONE 14,141.00,0.0,N/A,0.000,0.000,0.000,0.000,0.000,0.000,0.000,0.000,No
 Zone Internal Gains, THERMAL ZONE 11,291.00,0.0,N/A,0.000,0.000,0.000,0.000,0.000,0.000,0.000,0.000,No
 Zone Internal Gains, THERMAL ZONE 2,141.00,0.0,N/A,0.000,0.000,0.000,0.000,0.000,0.000,0.000,0.000,No
 Zone Internal Gains, THERMAL ZONE 8,141.00,0.0,N/A,0.000,0.000,0.000,0.000,0.000,0.000,0.000,0.000,No
 Zone Internal Gains, THERMAL ZONE 12,291.00,0.0,N/A,0.000,0.000,0.000,0.000,0.000,0.000,0.000,0.000,No
! <Shadowing/Sun Position Calculations> [Annual Simulations], Value {days}, Allowable Number Figures in Shadow Overlap {}, Polygon Clipping Algorithm, Sky Diffuse Modeling Algorithm
Shadowing/Sun Position Calculations,20,15000,SutherlandHodgman,SimpleSkyDiffuseModeling
! <RoomAir Model>, Zone Name, Mixing/Mundt/UCSDDV/UCSDCV/UCSDUFI/UCSDUFE/User Defined
RoomAir Model,THERMAL ZONE 4,Mixing/Well-Stirred
RoomAir Model,THERMAL ZONE 3,Mixing/Well-Stirred
RoomAir Model,THERMAL ZONE 9,Mixing/Well-Stirred
RoomAir Model,THERMAL ZONE 13,Mixing/Well-Stirred
RoomAir Model,THERMAL ZONE 6,Mixing/Well-Stirred
RoomAir Model,THERMAL ZONE 15,Mixing/Well-Stirred
RoomAir Model,THERMAL ZONE 7,Mixing/Well-Stirred
RoomAir Model,THERMAL ZONE 10,Mixing/Well-Stirred
RoomAir Model,THERMAL ZONE 5,Mixing/Well-Stirred
RoomAir Model,THERMAL ZONE 1,Mixing/Well-Stirred
RoomAir Model,THERMAL ZONE 14,Mixing/Well-Stirred
RoomAir Model,THERMAL ZONE 11,Mixing/Well-Stirred
RoomAir Model,THERMAL ZONE 2,Mixing/Well-Stirred
RoomAir Model,THERMAL ZONE 8,Mixing/Well-Stirred
RoomAir Model,THERMAL ZONE 12,Mixing/Well-Stirred
! <AirflowNetwork Model:Control>, No Multizone or Distribution/Multizone with Distribution/Multizone without Distribution/Multizone with Distribution only during Fan Operation
AirflowNetwork Model:Control,NoMultizoneOrDistribution
! <Zone Volume Capacitance Multiplier>, Sensible Heat Capacity Multiplier, Moisture Capacity Multiplier, Carbon Dioxide Capacity Multiplier, Generic Contaminant Capacity Multiplier
Zone Volume Capacitance Multiplier,   1.000 ,   1.000,   1.000,   1.000
! <Load Timesteps in Zone Design Calculation Averaging Window>, Value
 Load Timesteps in Zone Design Calculation Averaging Window,    4
! <Heating Sizing Factor Information>, Sizing Factor ID, Value
 Heating Sizing Factor Information, Global,   1.2500    
 Heating Sizing Factor Information, Zone THERMAL ZONE 4,   1.2500    
 Heating Sizing Factor Information, Zone THERMAL ZONE 3,   1.2500    
 Heating Sizing Factor Information, Zone THERMAL ZONE 9,   1.2500    
 Heating Sizing Factor Information, Zone THERMAL ZONE 13,   1.2500    
 Heating Sizing Factor Information, Zone THERMAL ZONE 6,   1.2500    
 Heating Sizing Factor Information, Zone THERMAL ZONE 15,   1.2500    
 Heating Sizing Factor Information, Zone THERMAL ZONE 7,   1.2500    
 Heating Sizing Factor Information, Zone THERMAL ZONE 10,   1.2500    
 Heating Sizing Factor Information, Zone THERMAL ZONE 5,   1.2500    
 Heating Sizing Factor Information, Zone THERMAL ZONE 1,   1.2500    
 Heating Sizing Factor Information, Zone THERMAL ZONE 14,   1.2500    
 Heating Sizing Factor Information, Zone THERMAL ZONE 11,   1.2500    
 Heating Sizing Factor Information, Zone THERMAL ZONE 2,   1.2500    
 Heating Sizing Factor Information, Zone THERMAL ZONE 8,   1.2500    
 Heating Sizing Factor Information, Zone THERMAL ZONE 12,   1.2500    
! <Cooling Sizing Factor Information>, Sizing Factor ID, Value
 Cooling Sizing Factor Information, Global,   1.1500    
 Cooling Sizing Factor Information, Zone THERMAL ZONE 4,   1.1500    
 Cooling Sizing Factor Information, Zone THERMAL ZONE 3,   1.1500    
 Cooling Sizing Factor Information, Zone THERMAL ZONE 9,   1.1500    
 Cooling Sizing Factor Information, Zone THERMAL ZONE 13,   1.1500    
 Cooling Sizing Factor Information, Zone THERMAL ZONE 6,   1.1500    
 Cooling Sizing Factor Information, Zone THERMAL ZONE 15,   1.1500    
 Cooling Sizing Factor Information, Zone THERMAL ZONE 7,   1.1500    
 Cooling Sizing Factor Information, Zone THERMAL ZONE 10,   1.1500    
 Cooling Sizing Factor Information, Zone THERMAL ZONE 5,   1.1500    
 Cooling Sizing Factor Information, Zone THERMAL ZONE 1,   1.1500    
 Cooling Sizing Factor Information, Zone THERMAL ZONE 14,   1.1500    
 Cooling Sizing Factor Information, Zone THERMAL ZONE 11,   1.1500    
 Cooling Sizing Factor Information, Zone THERMAL ZONE 2,   1.1500    
 Cooling Sizing Factor Information, Zone THERMAL ZONE 8,   1.1500    
 Cooling Sizing Factor Information, Zone THERMAL ZONE 12,   1.1500    
! <Zone Sizing Information>, Zone Name, Load Type, Calc Des Load {W}, User Des Load {W}, Calc Des Air Flow Rate {m3/s}, User Des Air Flow Rate {m3/s}, Design Day Name, Date/Time of Peak, Temperature at Peak {C}, Humidity Ratio at Peak {kgWater/kgDryAir}, Floor Area {m2}, # Occupants, Calc Outdoor Air Flow Rate {m3/s}
 Zone Sizing Information, THERMAL ZONE 4, Cooling, 13904.88648, 15990.61946, 0.84110, 0.96726, PHOENIX SKY HARBOR INTL AP ANN CLG .4% CONDNS DB=>MWB, 7/21 17:30:00, 41.12000, 7.19791E-003, 141.00000, 0.00000, 0.00000
 Zone Sizing Information, THERMAL ZONE 4, Heating, 4452.43974, 5565.54968, 0.23587, 0.29484, PHOENIX SKY HARBOR INTL AP ANN HTG 99.6% CONDNS DB, 12/21 24:00:00, 3.70000, 5.13120E-003, 141.00000, 0.00000, 0.00000
 Zone Sizing Information, THERMAL ZONE 3, Cooling, 7732.28338, 8892.12588, 0.46772, 0.53788, PHOENIX SKY HARBOR INTL AP ANN CLG .4% CONDNS DB=>MWB, 7/21 10:45:00, 40.19000, 7.19791E-003, 141.00000, 0.00000, 0.00000
 Zone Sizing Information, THERMAL ZONE 3, Heating, 4777.96464, 5972.45580, 0.25312, 0.31640, PHOENIX SKY HARBOR INTL AP ANN HTG 99.6% CONDNS DB, 12/21 24:00:00, 3.70000, 5.13120E-003, 141.00000, 0.00000, 0.00000
 Zone Sizing Information, THERMAL ZONE 9, Cooling, 8867.61285, 10197.75478, 0.53640, 0.61686, PHOENIX SKY HARBOR INTL AP ANN CLG .4% CONDNS DB=>MWB, 7/21 14:00:00, 43.40000, 7.19791E-003, 291.00000, 0.00000, 0.00000
 Zone Sizing Information, THERMAL ZONE 9, Heating, 9567.03646, 11958.79558, 0.50683, 0.63354, PHOENIX SKY HARBOR INTL AP ANN HTG 99.6% CONDNS DB, 12/21 24:00:00, 3.70000, 5.13120E-003, 291.00000, 0.00000, 0.00000
 Zone Sizing Information, THERMAL ZONE 13, Heating, 11262.66537, 14078.33171, 0.59666, 0.74582, PHOENIX SKY HARBOR INTL AP ANN HTG 99.6% CONDNS DB, 12/21 24:00:00, 3.70000, 5.13120E-003, 4136.00000, 0.00000, 0.00000
 Zone Sizing Information, THERMAL ZONE 6, Heating, 35062.26123, 43827.82654, 1.85748, 2.32185, PHOENIX SKY HARBOR INTL AP ANN HTG 99.6% CONDNS DB, 12/21 24:00:00, 3.70000, 5.13120E-003, 4136.00000, 0.00000, 0.00000
 Zone Sizing Information, THERMAL ZONE 15, Cooling, 10074.49768, 11585.67233, 0.60940, 0.70081, PHOENIX SKY HARBOR INTL AP ANN CLG .4% CONDNS DB=>MWB, 7/21 20:45:00, 36.59000, 7.19792E-003, 4136.00000, 0.00000, 0.00000
 Zone Sizing Information, THERMAL ZONE 15, Heating, 21783.21920, 27229.02400, 1.15400, 1.44250, PHOENIX SKY HARBOR INTL AP ANN HTG 99.6% CONDNS DB, 12/21 24:00:00, 3.70000, 5.13120E-003, 4136.00000, 0.00000, 0.00000
 Zone Sizing Information, THERMAL ZONE 7, Cooling, 11640.50283, 13386.57826, 0.70413, 0.80975, PHOENIX SKY HARBOR INTL AP ANN CLG .4% CONDNS DB=>MWB, 7/21 18:15:00, 40.07000, 7.19791E-003, 291.00000, 0.00000, 0.00000
 Zone Sizing Information, THERMAL ZONE 7, Heating, 8874.22143, 11092.77678, 0.47013, 0.58766, PHOENIX SKY HARBOR INTL AP ANN HTG 99.6% CONDNS DB, 12/21 24:00:00, 3.70000, 5.13120E-003, 291.00000, 0.00000, 0.00000
 Zone Sizing Information, THERMAL ZONE 10, Cooling, 9276.09524, 10667.50952, 0.56111, 0.64527, PHOENIX SKY HARBOR INTL AP ANN CLG .4% CONDNS DB=>MWB, 7/21 18:15:00, 40.07000, 7.19791E-003, 291.00000, 0.00000, 0.00000
 Zone Sizing Information, THERMAL ZONE 10, Heating, 7752.54946, 9690.68683, 0.41070, 0.51338, PHOENIX SKY HARBOR INTL AP ANN HTG 99.6% CONDNS DB, 12/21 24:00:00, 3.70000, 5.13120E-003, 291.00000, 0.00000, 0.00000
 Zone Sizing Information, THERMAL ZONE 5, Cooling, 9230.23447, 10614.76964, 0.55833, 0.64208, PHOENIX SKY HARBOR INTL AP ANN CLG .4% CONDNS DB=>MWB, 7/21 16:45:00, 41.96000, 7.19791E-003, 141.00000, 0.00000, 0.00000
 Zone Sizing Information, THERMAL ZONE 5, Heating, 4788.29882, 5985.37352, 0.25367, 0.31708, PHOENIX SKY HARBOR INTL AP ANN HTG 99.6% CONDNS DB, 12/21 24:00:00, 3.70000, 5.13120E-003, 141.00000, 0.00000, 0.00000
 Zone Sizing Information, THERMAL ZONE 1, Cooling, 16043.13318, 18449.60316, 0.97044, 1.11601, PHOENIX SKY HARBOR INTL AP ANN CLG .4% CONDNS DB=>MWB, 7/21 14:30:00, 43.40000, 7.19791E-003, 291.00000, 0.00000, 0.00000
 Zone Sizing Information, THERMAL ZONE 1, Heating, 7752.54946, 9690.68683, 0.41070, 0.51338, PHOENIX SKY HARBOR INTL AP ANN HTG 99.6% CONDNS DB, 12/21 24:00:00, 3.70000, 5.13120E-003, 291.00000, 0.00000, 0.00000
 Zone Sizing Information, THERMAL ZONE 14, Cooling, 12847.76492, 14774.92966, 0.77715, 0.89373, PHOENIX SKY HARBOR INTL AP ANN CLG .4% CONDNS DB=>MWB, 7/21 17:30:00, 41.12000, 7.19791E-003, 141.00000, 0.00000, 0.00000
 Zone Sizing Information, THERMAL ZONE 14, Heating, 3909.67903, 4887.09879, 0.20712, 0.25890, PHOENIX SKY HARBOR INTL AP ANN HTG 99.6% CONDNS DB, 12/21 24:00:00, 3.70000, 5.13120E-003, 141.00000, 0.00000, 0.00000
 Zone Sizing Information, THERMAL ZONE 11, Cooling, 18163.35799, 20887.86168, 1.09869, 1.26350, PHOENIX SKY HARBOR INTL AP ANN CLG .4% CONDNS DB=>MWB, 7/21 14:30:00, 43.40000, 7.19791E-003, 291.00000, 0.00000, 0.00000
 Zone Sizing Information, THERMAL ZONE 11, Heating, 8874.22143, 11092.77678, 0.47013, 0.58766, PHOENIX SKY HARBOR INTL AP ANN HTG 99.6% CONDNS DB, 12/21 24:00:00, 3.70000, 5.13120E-003, 291.00000, 0.00000, 0.00000
 Zone Sizing Information, THERMAL ZONE 2, Cooling, 11280.03762, 12972.04327, 0.68232, 0.78467, PHOENIX SKY HARBOR INTL AP ANN CLG .4% CONDNS DB=>MWB, 7/21 11:15:00, 40.94000, 7.19791E-003, 141.00000, 0.00000, 0.00000
 Zone Sizing Information, THERMAL ZONE 2, Heating, 3902.78858, 4878.48573, 0.20676, 0.25845, PHOENIX SKY HARBOR INTL AP ANN HTG 99.6% CONDNS DB, 12/21 24:00:00, 3.70000, 5.13120E-003, 141.00000, 0.00000, 0.00000
 Zone Sizing Information, THERMAL ZONE 8, Cooling, 12190.39130, 14018.95000, 0.73739, 0.84800, PHOENIX SKY HARBOR INTL AP ANN CLG .4% CONDNS DB=>MWB, 7/21 11:15:00, 40.94000, 7.19791E-003, 141.00000, 0.00000, 0.00000
 Zone Sizing Information, THERMAL ZONE 8, Heating, 4448.62459, 5560.78073, 0.23567, 0.29459, PHOENIX SKY HARBOR INTL AP ANN HTG 99.6% CONDNS DB, 12/21 24:00:00, 3.70000, 5.13120E-003, 141.00000, 0.00000, 0.00000
 Zone Sizing Information, THERMAL ZONE 12, Cooling, 2597.28424, 2986.87687, 0.15711, 0.18067, PHOENIX SKY HARBOR INTL AP ANN CLG .4% CONDNS DB=>MWB, 7/21 18:15:00, 40.07000, 7.19791E-003, 291.00000, 0.00000, 0.00000
 Zone Sizing Information, THERMAL ZONE 12, Heating, 9567.03646, 11958.79558, 0.50683, 0.63354, PHOENIX SKY HARBOR INTL AP ANN HTG 99.6% CONDNS DB, 12/21 24:00:00, 3.70000, 5.13120E-003, 291.00000, 0.00000, 0.00000
! <System Sizing Information>, System Name, Field Description, Value
 System Sizing Information, AIR LOOP HVAC 1, Calculated Cooling Design Air Flow Rate [m3/s], 10.00649
 System Sizing Information, AIR LOOP HVAC 1, User Cooling Design Air Flow Rate [m3/s], 10.00649
 System Sizing Information, AIR LOOP HVAC 1, Calculated Heating Design Air Flow Rate [m3/s], 9.71957
 System Sizing Information, AIR LOOP HVAC 1, User Heating Design Air Flow Rate [m3/s], 9.71957
! <Component Sizing Information>, Component Type, Component Name, Input Field Description, Value
 Component Sizing Information, AirTerminal:SingleDuct:VAV:Reheat, AIR TERMINAL SINGLE DUCT VAV REHEAT 14, Maximum Air Flow Rate [m3/s], 0.96726
 Component Sizing Information, AirTerminal:SingleDuct:VAV:Reheat, AIR TERMINAL SINGLE DUCT VAV REHEAT 14, Maximum Flow per Zone Floor Area during Reheat [m3/s-m2], 2.05801E-003
 Component Sizing Information, AirTerminal:SingleDuct:VAV:Reheat, AIR TERMINAL SINGLE DUCT VAV REHEAT 14, Maximum Flow Fraction during Reheat [], 0.30000
 Component Sizing Information, AirTerminal:SingleDuct:VAV:Reheat, AIR TERMINAL SINGLE DUCT VAV REHEAT 14, Maximum Reheat Water Flow Rate [m3/s], 2.09039E-004
 Component Sizing Information, AirTerminal:SingleDuct:VAV:Reheat, AIR TERMINAL SINGLE DUCT VAV REHEAT 14, Reheat Coil Sizing Air Volume Flow Rate [m3/s], 0.29484
 Component Sizing Information, Coil:Heating:Water, COIL HEATING WATER 15, Maximum Water Flow Rate [m3/s], 2.09039E-004
 Component Sizing Information, Coil:Heating:Water, COIL HEATING WATER 15, Design Coil Load [W], 9622.12102
 Component Sizing Information, Coil:Heating:Water, COIL HEATING WATER 15, U-Factor Times Area Value [W/K], 661.10910
! <Water Heating Coil Capacity Information>,Component Type,Name,Nominal Total Capacity {W}
Water Heating Coil Capacity Information,Coil:Heating:Water,COIL HEATING WATER 15,17134.35
 Component Sizing Information, AirTerminal:SingleDuct:VAV:Reheat, AIR TERMINAL SINGLE DUCT VAV REHEAT 6, Maximum Air Flow Rate [m3/s], 0.53788
 Component Sizing Information, AirTerminal:SingleDuct:VAV:Reheat, AIR TERMINAL SINGLE DUCT VAV REHEAT 6, Maximum Flow per Zone Floor Area during Reheat [m3/s-m2], 2.03200E-003
 Component Sizing Information, AirTerminal:SingleDuct:VAV:Reheat, AIR TERMINAL SINGLE DUCT VAV REHEAT 6, Maximum Flow Fraction during Reheat [], 0.53267
 Component Sizing Information, AirTerminal:SingleDuct:VAV:Reheat, AIR TERMINAL SINGLE DUCT VAV REHEAT 6, Maximum Reheat Water Flow Rate [m3/s], 2.24322E-004
 Component Sizing Information, AirTerminal:SingleDuct:VAV:Reheat, AIR TERMINAL SINGLE DUCT VAV REHEAT 6, Reheat Coil Sizing Air Volume Flow Rate [m3/s], 0.31640
 Component Sizing Information, Coil:Heating:Water, COIL HEATING WATER 7, Maximum Water Flow Rate [m3/s], 2.24322E-004
 Component Sizing Information, Coil:Heating:Water, COIL HEATING WATER 7, Design Coil Load [W], 10325.60948
 Component Sizing Information, Coil:Heating:Water, COIL HEATING WATER 7, U-Factor Times Area Value [W/K], 367.63212
Water Heating Coil Capacity Information,Coil:Heating:Water,COIL HEATING WATER 7,13632.47
 Component Sizing Information, AirTerminal:SingleDuct:VAV:Reheat, AIR TERMINAL SINGLE DUCT VAV REHEAT 16, Maximum Air Flow Rate [m3/s], 0.63354
 Component Sizing Information, AirTerminal:SingleDuct:VAV:Reheat, AIR TERMINAL SINGLE DUCT VAV REHEAT 16, Maximum Flow per Zone Floor Area during Reheat [m3/s-m2], 2.03200E-003
 Component Sizing Information, AirTerminal:SingleDuct:VAV:Reheat, AIR TERMINAL SINGLE DUCT VAV REHEAT 16, Maximum Flow Fraction during Reheat [], 0.93335
 Component Sizing Information, AirTerminal:SingleDuct:VAV:Reheat, AIR TERMINAL SINGLE DUCT VAV REHEAT 16, Maximum Reheat Water Flow Rate [m3/s], 4.49165E-004
 Component Sizing Information, AirTerminal:SingleDuct:VAV:Reheat, AIR TERMINAL SINGLE DUCT VAV REHEAT 16, Reheat Coil Sizing Air Volume Flow Rate [m3/s], 0.63354
 Component Sizing Information, Coil:Heating:Water, COIL HEATING WATER 17, Maximum Water Flow Rate [m3/s], 4.49165E-004
 Component Sizing Information, Coil:Heating:Water, COIL HEATING WATER 17, Design Coil Load [W], 20675.22256
 Component Sizing Information, Coil:Heating:Water, COIL HEATING WATER 17, U-Factor Times Area Value [W/K], 433.01110
Water Heating Coil Capacity Information,Coil:Heating:Water,COIL HEATING WATER 17,19586.82
 Component Sizing Information, AirTerminal:SingleDuct:VAV:Reheat, AIR TERMINAL SINGLE DUCT VAV REHEAT 8, Maximum Air Flow Rate [m3/s], 0.74582
 Component Sizing Information, AirTerminal:SingleDuct:VAV:Reheat, AIR TERMINAL SINGLE DUCT VAV REHEAT 8, Maximum Flow per Zone Floor Area during Reheat [m3/s-m2], 1.80324E-004
 Component Sizing Information, AirTerminal:SingleDuct:VAV:Reheat, AIR TERMINAL SINGLE DUCT VAV REHEAT 8, Maximum Flow Fraction during Reheat [], 1.00000
 Component Sizing Information, AirTerminal:SingleDuct:VAV:Reheat, AIR TERMINAL SINGLE DUCT VAV REHEAT 8, Maximum Reheat Water Flow Rate [m3/s], 5.28774E-004
 Component Sizing Information, AirTerminal:SingleDuct:VAV:Reheat, AIR TERMINAL SINGLE DUCT VAV REHEAT 8, Reheat Coil Sizing Air Volume Flow Rate [m3/s], 0.74582
 Component Sizing Information, Coil:Heating:Water, COIL HEATING WATER 9, Maximum Water Flow Rate [m3/s], 5.28774E-004
 Component Sizing Information, Coil:Heating:Water, COIL HEATING WATER 9, Design Coil Load [W], 24339.62849
 Component Sizing Information, Coil:Heating:Water, COIL HEATING WATER 9, U-Factor Times Area Value [W/K], 509.75651
Water Heating Coil Capacity Information,Coil:Heating:Water,COIL HEATING WATER 9,23058.32
 Component Sizing Information, AirTerminal:SingleDuct:VAV:Reheat, AIR TERMINAL SINGLE DUCT VAV REHEAT 2, Maximum Air Flow Rate [m3/s], 2.32185
 Component Sizing Information, AirTerminal:SingleDuct:VAV:Reheat, AIR TERMINAL SINGLE DUCT VAV REHEAT 2, Maximum Flow per Zone Floor Area during Reheat [m3/s-m2], 5.61375E-004
 Component Sizing Information, AirTerminal:SingleDuct:VAV:Reheat, AIR TERMINAL SINGLE DUCT VAV REHEAT 2, Maximum Flow Fraction during Reheat [], 1.00000
 Component Sizing Information, AirTerminal:SingleDuct:VAV:Reheat, AIR TERMINAL SINGLE DUCT VAV REHEAT 2, Maximum Reheat Water Flow Rate [m3/s], 1.64615E-003
 Component Sizing Information, AirTerminal:SingleDuct:VAV:Reheat, AIR TERMINAL SINGLE DUCT VAV REHEAT 2, Reheat Coil Sizing Air Volume Flow Rate [m3/s], 2.32185
 Component Sizing Information, Coil:Heating:Water, COIL HEATING WATER 3, Maximum Water Flow Rate [m3/s], 1.64615E-003
 Component Sizing Information, Coil:Heating:Water, COIL HEATING WATER 3, Design Coil Load [W], 75772.68651
 Component Sizing Information, Coil:Heating:Water, COIL HEATING WATER 3, U-Factor Times Area Value [W/K], 1586.94370
Water Heating Coil Capacity Information,Coil:Heating:Water,COIL HEATING WATER 3,71783.79
 Component Sizing Information, AirTerminal:SingleDuct:VAV:Reheat, AIR TERMINAL SINGLE DUCT VAV REHEAT 9, Maximum Air Flow Rate [m3/s], 1.44250
 Component Sizing Information, AirTerminal:SingleDuct:VAV:Reheat, AIR TERMINAL SINGLE DUCT VAV REHEAT 9, Maximum Flow per Zone Floor Area during Reheat [m3/s-m2], 3.48767E-004
 Component Sizing Information, AirTerminal:SingleDuct:VAV:Reheat, AIR TERMINAL SINGLE DUCT VAV REHEAT 9, Maximum Flow Fraction during Reheat [], 1.00000
 Component Sizing Information, AirTerminal:SingleDuct:VAV:Reheat, AIR TERMINAL SINGLE DUCT VAV REHEAT 9, Maximum Reheat Water Flow Rate [m3/s], 1.02271E-003
 Component Sizing Information, AirTerminal:SingleDuct:VAV:Reheat, AIR TERMINAL SINGLE DUCT VAV REHEAT 9, Reheat Coil Sizing Air Volume Flow Rate [m3/s], 1.44250
 Component Sizing Information, Coil:Heating:Water, COIL HEATING WATER 10, Maximum Water Flow Rate [m3/s], 1.02271E-003
 Component Sizing Information, Coil:Heating:Water, COIL HEATING WATER 10, Design Coil Load [W], 47075.48748
 Component Sizing Information, Coil:Heating:Water, COIL HEATING WATER 10, U-Factor Times Area Value [W/K], 985.92450
Water Heating Coil Capacity Information,Coil:Heating:Water,COIL HEATING WATER 10,44597.29
 Component Sizing Information, AirTerminal:SingleDuct:VAV:Reheat, AIR TERMINAL SINGLE DUCT VAV REHEAT 10, Maximum Air Flow Rate [m3/s], 0.80975
 Component Sizing Information, AirTerminal:SingleDuct:VAV:Reheat, AIR TERMINAL SINGLE DUCT VAV REHEAT 10, Maximum Flow per Zone Floor Area during Reheat [m3/s-m2], 2.03200E-003
 Component Sizing Information, AirTerminal:SingleDuct:VAV:Reheat, AIR TERMINAL SINGLE DUCT VAV REHEAT 10, Maximum Flow Fraction during Reheat [], 0.73024
 Component Sizing Information, AirTerminal:SingleDuct:VAV:Reheat, AIR TERMINAL SINGLE DUCT VAV REHEAT 10, Maximum Reheat Water Flow Rate [m3/s], 4.16638E-004
 Component Sizing Information, AirTerminal:SingleDuct:VAV:Reheat, AIR TERMINAL SINGLE DUCT VAV REHEAT 10, Reheat Coil Sizing Air Volume Flow Rate [m3/s], 0.58766
 Component Sizing Information, Coil:Heating:Water, COIL HEATING WATER 11, Maximum Water Flow Rate [m3/s], 4.16638E-004
 Component Sizing Information, Coil:Heating:Water, COIL HEATING WATER 11, Design Coil Load [W], 19177.98723
 Component Sizing Information, Coil:Heating:Water, COIL HEATING WATER 11, U-Factor Times Area Value [W/K], 553.44878
Water Heating Coil Capacity Information,Coil:Heating:Water,COIL HEATING WATER 11,22399.23
 Component Sizing Information, AirTerminal:SingleDuct:VAV:Reheat, AIR TERMINAL SINGLE DUCT VAV REHEAT 13, Maximum Air Flow Rate [m3/s], 0.64527
 Component Sizing Information, AirTerminal:SingleDuct:VAV:Reheat, AIR TERMINAL SINGLE DUCT VAV REHEAT 13, Maximum Flow per Zone Floor Area during Reheat [m3/s-m2], 2.03200E-003
 Component Sizing Information, AirTerminal:SingleDuct:VAV:Reheat, AIR TERMINAL SINGLE DUCT VAV REHEAT 13, Maximum Flow Fraction during Reheat [], 0.91638
 Component Sizing Information, AirTerminal:SingleDuct:VAV:Reheat, AIR TERMINAL SINGLE DUCT VAV REHEAT 13, Maximum Reheat Water Flow Rate [m3/s], 3.63977E-004
 Component Sizing Information, AirTerminal:SingleDuct:VAV:Reheat, AIR TERMINAL SINGLE DUCT VAV REHEAT 13, Reheat Coil Sizing Air Volume Flow Rate [m3/s], 0.51338
 Component Sizing Information, Coil:Heating:Water, COIL HEATING WATER 14, Maximum Water Flow Rate [m3/s], 3.63977E-004
 Component Sizing Information, Coil:Heating:Water, COIL HEATING WATER 14, Design Coil Load [W], 16753.95367
 Component Sizing Information, Coil:Heating:Water, COIL HEATING WATER 14, U-Factor Times Area Value [W/K], 441.03280
Water Heating Coil Capacity Information,Coil:Heating:Water,COIL HEATING WATER 14,18476.64
 Component Sizing Information, AirTerminal:SingleDuct:VAV:Reheat, AIR TERMINAL SINGLE DUCT VAV REHEAT 15, Maximum Air Flow Rate [m3/s], 0.64208
 Component Sizing Information, AirTerminal:SingleDuct:VAV:Reheat, AIR TERMINAL SINGLE DUCT VAV REHEAT 15, Maximum Flow per Zone Floor Area during Reheat [m3/s-m2], 2.03200E-003
 Component Sizing Information, AirTerminal:SingleDuct:VAV:Reheat, AIR TERMINAL SINGLE DUCT VAV REHEAT 15, Maximum Flow Fraction during Reheat [], 0.44622
 Component Sizing Information, AirTerminal:SingleDuct:VAV:Reheat, AIR TERMINAL SINGLE DUCT VAV REHEAT 15, Maximum Reheat Water Flow Rate [m3/s], 2.24807E-004
 Component Sizing Information, AirTerminal:SingleDuct:VAV:Reheat, AIR TERMINAL SINGLE DUCT VAV REHEAT 15, Reheat Coil Sizing Air Volume Flow Rate [m3/s], 0.31708
 Component Sizing Information, Coil:Heating:Water, COIL HEATING WATER 16, Maximum Water Flow Rate [m3/s], 2.24807E-004
 Component Sizing Information, Coil:Heating:Water, COIL HEATING WATER 16, Design Coil Load [W], 10347.94256
 Component Sizing Information, Coil:Heating:Water, COIL HEATING WATER 16, U-Factor Times Area Value [W/K], 438.85235
Water Heating Coil Capacity Information,Coil:Heating:Water,COIL HEATING WATER 16,14985.05
 Component Sizing Information, AirTerminal:SingleDuct:VAV:Reheat, AIR TERMINAL SINGLE DUCT VAV REHEAT 5, Maximum Air Flow Rate [m3/s], 1.11601
 Component Sizing Information, AirTerminal:SingleDuct:VAV:Reheat, AIR TERMINAL SINGLE DUCT VAV REHEAT 5, Maximum Flow per Zone Floor Area during Reheat [m3/s-m2], 2.03200E-003
 Component Sizing Information, AirTerminal:SingleDuct:VAV:Reheat, AIR TERMINAL SINGLE DUCT VAV REHEAT 5, Maximum Flow Fraction during Reheat [], 0.52985
 Component Sizing Information, AirTerminal:SingleDuct:VAV:Reheat, AIR TERMINAL SINGLE DUCT VAV REHEAT 5, Maximum Reheat Water Flow Rate [m3/s], 3.63977E-004
 Component Sizing Information, AirTerminal:SingleDuct:VAV:Reheat, AIR TERMINAL SINGLE DUCT VAV REHEAT 5, Reheat Coil Sizing Air Volume Flow Rate [m3/s], 0.51338
 Component Sizing Information, Coil:Heating:Water, COIL HEATING WATER 6, Maximum Water Flow Rate [m3/s], 3.63977E-004
 Component Sizing Information, Coil:Heating:Water, COIL HEATING WATER 6, Design Coil Load [W], 16753.95367
 Component Sizing Information, Coil:Heating:Water, COIL HEATING WATER 6, U-Factor Times Area Value [W/K], 762.77224
Water Heating Coil Capacity Information,Coil:Heating:Water,COIL HEATING WATER 6,25123.25
 Component Sizing Information, AirTerminal:SingleDuct:VAV:Reheat, AIR TERMINAL SINGLE DUCT VAV REHEAT 3, Maximum Air Flow Rate [m3/s], 0.89373
 Component Sizing Information, AirTerminal:SingleDuct:VAV:Reheat, AIR TERMINAL SINGLE DUCT VAV REHEAT 3, Maximum Flow per Zone Floor Area during Reheat [m3/s-m2], 2.03200E-003
 Component Sizing Information, AirTerminal:SingleDuct:VAV:Reheat, AIR TERMINAL SINGLE DUCT VAV REHEAT 3, Maximum Flow Fraction during Reheat [], 0.32058
 Component Sizing Information, AirTerminal:SingleDuct:VAV:Reheat, AIR TERMINAL SINGLE DUCT VAV REHEAT 3, Maximum Reheat Water Flow Rate [m3/s], 1.90091E-004
 Component Sizing Information, AirTerminal:SingleDuct:VAV:Reheat, AIR TERMINAL SINGLE DUCT VAV REHEAT 3, Reheat Coil Sizing Air Volume Flow Rate [m3/s], 0.26812
 Component Sizing Information, Coil:Heating:Water, COIL HEATING WATER 4, Maximum Water Flow Rate [m3/s], 1.90091E-004
 Component Sizing Information, Coil:Heating:Water, COIL HEATING WATER 4, Design Coil Load [W], 8749.95244
 Component Sizing Information, Coil:Heating:Water, COIL HEATING WATER 4, U-Factor Times Area Value [W/K], 610.84816
Water Heating Coil Capacity Information,Coil:Heating:Water,COIL HEATING WATER 4,15668.86
 Component Sizing Information, AirTerminal:SingleDuct:VAV:Reheat, AIR TERMINAL SINGLE DUCT VAV REHEAT 4, Maximum Air Flow Rate [m3/s], 1.26350
 Component Sizing Information, AirTerminal:SingleDuct:VAV:Reheat, AIR TERMINAL SINGLE DUCT VAV REHEAT 4, Maximum Flow per Zone Floor Area during Reheat [m3/s-m2], 2.03200E-003
 Component Sizing Information, AirTerminal:SingleDuct:VAV:Reheat, AIR TERMINAL SINGLE DUCT VAV REHEAT 4, Maximum Flow Fraction during Reheat [], 0.46800
 Component Sizing Information, AirTerminal:SingleDuct:VAV:Reheat, AIR TERMINAL SINGLE DUCT VAV REHEAT 4, Maximum Reheat Water Flow Rate [m3/s], 4.16638E-004
 Component Sizing Information, AirTerminal:SingleDuct:VAV:Reheat, AIR TERMINAL SINGLE DUCT VAV REHEAT 4, Reheat Coil Sizing Air Volume Flow Rate [m3/s], 0.58766
 Component Sizing Information, Coil:Heating:Water, COIL HEATING WATER 5, Maximum Water Flow Rate [m3/s], 4.16638E-004
 Component Sizing Information, Coil:Heating:Water, COIL HEATING WATER 5, Design Coil Load [W], 19177.98723
 Component Sizing Information, Coil:Heating:Water, COIL HEATING WATER 5, U-Factor Times Area Value [W/K], 863.57852
Water Heating Coil Capacity Information,Coil:Heating:Water,COIL HEATING WATER 5,28605.84
 Component Sizing Information, AirTerminal:SingleDuct:VAV:Reheat, AIR TERMINAL SINGLE DUCT VAV REHEAT 12, Maximum Air Flow Rate [m3/s], 0.78467
 Component Sizing Information, AirTerminal:SingleDuct:VAV:Reheat, AIR TERMINAL SINGLE DUCT VAV REHEAT 12, Maximum Flow per Zone Floor Area during Reheat [m3/s-m2], 2.03200E-003
 Component Sizing Information, AirTerminal:SingleDuct:VAV:Reheat, AIR TERMINAL SINGLE DUCT VAV REHEAT 12, Maximum Flow Fraction during Reheat [], 0.36514
 Component Sizing Information, AirTerminal:SingleDuct:VAV:Reheat, AIR TERMINAL SINGLE DUCT VAV REHEAT 12, Maximum Reheat Water Flow Rate [m3/s], 1.83233E-004
 Component Sizing Information, AirTerminal:SingleDuct:VAV:Reheat, AIR TERMINAL SINGLE DUCT VAV REHEAT 12, Reheat Coil Sizing Air Volume Flow Rate [m3/s], 0.25845
 Component Sizing Information, Coil:Heating:Water, COIL HEATING WATER 13, Maximum Water Flow Rate [m3/s], 1.83233E-004
 Component Sizing Information, Coil:Heating:Water, COIL HEATING WATER 13, Design Coil Load [W], 8434.27564
 Component Sizing Information, Coil:Heating:Water, COIL HEATING WATER 13, U-Factor Times Area Value [W/K], 536.31042
Water Heating Coil Capacity Information,Coil:Heating:Water,COIL HEATING WATER 13,14599.46
 Component Sizing Information, AirTerminal:SingleDuct:VAV:Reheat, AIR TERMINAL SINGLE DUCT VAV REHEAT 11, Maximum Air Flow Rate [m3/s], 0.84800
 Component Sizing Information, AirTerminal:SingleDuct:VAV:Reheat, AIR TERMINAL SINGLE DUCT VAV REHEAT 11, Maximum Flow per Zone Floor Area during Reheat [m3/s-m2], 2.03200E-003
 Component Sizing Information, AirTerminal:SingleDuct:VAV:Reheat, AIR TERMINAL SINGLE DUCT VAV REHEAT 11, Maximum Flow Fraction during Reheat [], 0.33787
 Component Sizing Information, AirTerminal:SingleDuct:VAV:Reheat, AIR TERMINAL SINGLE DUCT VAV REHEAT 11, Maximum Reheat Water Flow Rate [m3/s], 2.08860E-004
 Component Sizing Information, AirTerminal:SingleDuct:VAV:Reheat, AIR TERMINAL SINGLE DUCT VAV REHEAT 11, Reheat Coil Sizing Air Volume Flow Rate [m3/s], 0.29459
 Component Sizing Information, Coil:Heating:Water, COIL HEATING WATER 12, Maximum Water Flow Rate [m3/s], 2.08860E-004
 Component Sizing Information, Coil:Heating:Water, COIL HEATING WATER 12, Design Coil Load [W], 9613.87613
 Component Sizing Information, Coil:Heating:Water, COIL HEATING WATER 12, U-Factor Times Area Value [W/K], 579.59327
Water Heating Coil Capacity Information,Coil:Heating:Water,COIL HEATING WATER 12,16302.39
 Component Sizing Information, AirTerminal:SingleDuct:VAV:Reheat, AIR TERMINAL SINGLE DUCT VAV REHEAT 7, Maximum Air Flow Rate [m3/s], 0.63354
 Component Sizing Information, AirTerminal:SingleDuct:VAV:Reheat, AIR TERMINAL SINGLE DUCT VAV REHEAT 7, Maximum Flow per Zone Floor Area during Reheat [m3/s-m2], 2.03200E-003
 Component Sizing Information, AirTerminal:SingleDuct:VAV:Reheat, AIR TERMINAL SINGLE DUCT VAV REHEAT 7, Maximum Flow Fraction during Reheat [], 0.93335
 Component Sizing Information, AirTerminal:SingleDuct:VAV:Reheat, AIR TERMINAL SINGLE DUCT VAV REHEAT 7, Maximum Reheat Water Flow Rate [m3/s], 4.49165E-004
 Component Sizing Information, AirTerminal:SingleDuct:VAV:Reheat, AIR TERMINAL SINGLE DUCT VAV REHEAT 7, Reheat Coil Sizing Air Volume Flow Rate [m3/s], 0.63354
 Component Sizing Information, Coil:Heating:Water, COIL HEATING WATER 8, Maximum Water Flow Rate [m3/s], 4.49165E-004
 Component Sizing Information, Coil:Heating:Water, COIL HEATING WATER 8, Design Coil Load [W], 20675.22256
 Component Sizing Information, Coil:Heating:Water, COIL HEATING WATER 8, U-Factor Times Area Value [W/K], 433.01110
Water Heating Coil Capacity Information,Coil:Heating:Water,COIL HEATING WATER 8,19586.82
 Component Sizing Information, Branch, BRANCH {72010D8E-3754-435B-B558-8138E02A5463}, Maximum Flow Rate [m3/s], 10.00649
 Component Sizing Information, AirLoopHVAC, AIR LOOP HVAC 1, Design Supply Air Flow Rate [m3/s], 10.00649
 Component Sizing Information, Controller:OutdoorAir, CONTROLLER OUTDOOR AIR 1, Maximum Outdoor Air Flow Rate [m3/s], 10.00649
 Component Sizing Information, Controller:OutdoorAir, CONTROLLER OUTDOOR AIR 1, Minimum Outdoor Air Flow Rate [m3/s], 0.00000
 Component Sizing Information, Coil:Cooling:DX:TwoSpeed, COIL COOLING DX TWO SPEED 1, Rated High Speed Air Flow Rate [m3/s], 10.00649
 Component Sizing Information, Coil:Cooling:DX:TwoSpeed, COIL COOLING DX TWO SPEED 1, Rated High Speed Total Cooling Capacity (gross) [W], 248484.85571
 Component Sizing Information, Coil:Cooling:DX:TwoSpeed, COIL COOLING DX TWO SPEED 1, Rated High Speed Sensible Heat Ratio, 0.67608
 Component Sizing Information, Coil:Cooling:DX:TwoSpeed, COIL COOLING DX TWO SPEED 1, Rated Low Speed Air Flow Rate [m3/s], 3.33516
 Component Sizing Information, Coil:Cooling:DX:TwoSpeed, COIL COOLING DX TWO SPEED 1, Rated Low Speed Total Cooling Capacity (gross) [W], 82820.00241
! <VAV DX Cooling Coil Standard Rating Information>, DX Coil Type, DX Coil Name, Fan Type, Fan Name, Standard Net Cooling Capacity {W}, Standard Net Cooling Capacity {Btu/h}, IEER {Btu/W-h}, COP 100% Capacity {W/W}, COP 75% Capacity {W/W}, COP 50% Capacity {W/W}, COP 25% Capacity {W/W}, EER 100% Capacity {Btu/W-h}, EER 75% Capacity {Btu/W-h}, EER 50% Capacity {Btu/W-h}, EER 25% Capacity {Btu/W-h}, Supply Air Flow 100% {kg/s}, Supply Air Flow 75% {kg/s},Supply Air Flow 50% {kg/s},Supply Air Flow 25% {kg/s}
 VAV DX Cooling Coil Standard Rating Information, Coil:Cooling:DX:TwoSpeed,COIL COOLING DX TWO SPEED 1,N/A,N/A,241167.65,822898.17,25.99,4.59,6.21,8.76,12.89,15.66,21.17,29.87,43.99,11.1188,8.9055,6.1329,3.1549,
 Component Sizing Information, Coil:Heating:Water, COIL HEATING WATER 1, Maximum Water Flow Rate [m3/s], 6.89961E-004
 Component Sizing Information, Coil:Heating:Water, COIL HEATING WATER 1, Design Coil Load [W], 31759.11787
 Component Sizing Information, Coil:Heating:Water, COIL HEATING WATER 1, U-Factor Times Area Value [W/K], 482.89438
Water Heating Coil Capacity Information,Coil:Heating:Water,COIL HEATING WATER 1,28377.64
 Component Sizing Information, Fan:VariableVolume, FAN VARIABLE VOLUME 1, Maximum Flow Rate [m3/s], 10.00649
 Component Sizing Information, Controller:WaterCoil, CONTROLLER WATER COIL 1, Maximum Actuated Flow [m3/s], 6.89961E-004
 Component Sizing Information, Controller:WaterCoil, CONTROLLER WATER COIL 1, Controller Convergence Tolerance, 6.90170E-004
 Component Sizing Information, Boiler:HotWater, BOILER HOT WATER 1, Nominal Capacity [W], 350606.97947
 Component Sizing Information, Boiler:HotWater, BOILER HOT WATER 1, Design Water Flow Rate [m3/s], 7.58750E-003
 Component Sizing Information, PlantLoop, PLANT LOOP 1, Maximum Loop Flow Rate [m3/s], 7.58750E-003
 Component Sizing Information, PlantLoop, PLANT LOOP 1, Plant Loop Volume [m3], 8.53594
 Component Sizing Information, Pump:VariableSpeed, PUMP VARIABLE SPEED 1, Rated Flow Rate [m3/s], 7.58750E-003
 Component Sizing Information, Pump:VariableSpeed, PUMP VARIABLE SPEED 1, Rated Power Consumption [W], 1938.50947
! <Environment>,Environment Name,Environment Type, Start Date, End Date, Start DayOfWeek, Duration {#days}, Source:Start DayOfWeek,  Use Daylight Saving, Use Holidays, Apply Weekend Holiday Rule,  Use Rain Values, Use Snow Values
! <Environment:Special Days>, Special Day Name, Special Day Type, Source, Start Date, Duration {#days}
! <Environment:Daylight Saving>, Daylight Saving Indicator, Source, Start Date, End Date
! <Environment:WarmupDays>, NumberofWarmupDays
Environment,PHOENIX SKY HARBOR INTL AP ANN HTG 99% CONDNS DB,SizingPeriod:DesignDay,12/21,12/21,WinterDesignDay,1,N/A,N/A,N/A,N/A,N/A,N/A
Environment:Daylight Saving,No,SizingPeriod:DesignDay
! <Environment:Design Day Data>, Max Dry-Bulb Temp {C}, Temp Range {dC}, Temp Range Ind Type, Hum Ind Value at Max Temp, Hum Ind Type,Pressure {Pa}, Wind Direction {deg CW from N}, Wind Speed {m/s}, Clearness, Rain, Snow
! <Environment:Design_Day_Misc>,DayOfYear,ASHRAE A Coeff,ASHRAE B Coeff,ASHRAE C Coeff,Solar Constant-Annual Variation,Eq of Time {minutes}, Solar Declination Angle {deg}, Solar Model
Environment:Design Day Data,5.20,0.00,DefaultMultipliers,97342,100,1.7,0.00,No ,No 
Environment:Design_Day_Misc,355,1232.8,0.1424,5.7719E-002,1.0,2.45,-23.5,ASHRAEClearSky
Environment:WarmupDays,  6
! <Tabular Report>,Style
Tabular Report,HTML
! <Warmup Convergence Information>,Zone Name,Environment Type/Name,Average Warmup Temperature Difference {deltaC},Std Dev Warmup Temperature Difference {deltaC},Max Temperature Pass/Fail Convergence,Min Temperature Pass/Fail Convergence,Average Warmup Load Difference {W},Std Dev Warmup Load Difference {W},Heating Load Pass/Fail Convergence,Cooling Load Pass/Fail Convergence
 Warmup Convergence Information,THERMAL ZONE 4,SizingPeriod: PHOENIX SKY HARBOR INTL AP ANN HTG 99% CONDNS DB,2.7790697436E-003,1.2192977026E-003,Pass,Pass,3.4006684035E-003,1.1828019588E-003,Pass,Pass
 Warmup Convergence Information,THERMAL ZONE 3,SizingPeriod: PHOENIX SKY HARBOR INTL AP ANN HTG 99% CONDNS DB,2.4964623823E-005,1.6841679716E-005,Pass,Pass,1.6688081059E-005,1.2535842498E-005,Pass,Pass
 Warmup Convergence Information,THERMAL ZONE 9,SizingPeriod: PHOENIX SKY HARBOR INTL AP ANN HTG 99% CONDNS DB,2.8563342424E-005,2.1525693031E-005,Pass,Pass,2.4109137287E-005,1.8079210721E-005,Pass,Pass
 Warmup Convergence Information,THERMAL ZONE 13,SizingPeriod: PHOENIX SKY HARBOR INTL AP ANN HTG 99% CONDNS DB,8.0172201877E-005,1.7397191317E-005,Pass,Pass,2.5242938555E-005,1.8643397075E-005,Pass,Pass
 Warmup Convergence Information,THERMAL ZONE 6,SizingPeriod: PHOENIX SKY HARBOR INTL AP ANN HTG 99% CONDNS DB,2.4711312795E-005,1.1658228712E-005,Pass,Pass,2.4493302231E-005,1.8136715358E-005,Pass,Pass
 Warmup Convergence Information,THERMAL ZONE 15,SizingPeriod: PHOENIX SKY HARBOR INTL AP ANN HTG 99% CONDNS DB,9.1345267829E-005,2.0128125323E-005,Pass,Pass,2.6086756673E-005,1.9322306951E-005,Pass,Pass
 Warmup Convergence Information,THERMAL ZONE 7,SizingPeriod: PHOENIX SKY HARBOR INTL AP ANN HTG 99% CONDNS DB,2.8758675041E-004,1.1327983266E-003,Pass,Pass,2.9144108672E-004,1.2807901496E-003,Pass,Pass
 Warmup Convergence Information,THERMAL ZONE 10,SizingPeriod: PHOENIX SKY HARBOR INTL AP ANN HTG 99% CONDNS DB,4.4449099521E-003,1.5993979225E-003,Pass,Pass,4.4469428343E-003,2.3909698370E-003,Pass,Pass
 Warmup Convergence Information,THERMAL ZONE 5,SizingPeriod: PHOENIX SKY HARBOR INTL AP ANN HTG 99% CONDNS DB,3.0036564603E-003,8.1809647205E-004,Pass,Pass,3.0542843090E-003,1.0853270390E-003,Pass,Pass
 Warmup Convergence Information,THERMAL ZONE 1,SizingPeriod: PHOENIX SKY HARBOR INTL AP ANN HTG 99% CONDNS DB,2.1986423703E-003,2.4459446443E-003,Pass,Pass,2.5617608892E-003,3.1058077361E-003,Pass,Pass
 Warmup Convergence Information,THERMAL ZONE 14,SizingPeriod: PHOENIX SKY HARBOR INTL AP ANN HTG 99% CONDNS DB,2.3276814709E-003,2.3677737499E-003,Pass,Pass,2.7999442046E-003,3.0119878624E-003,Pass,Pass
 Warmup Convergence Information,THERMAL ZONE 11,SizingPeriod: PHOENIX SKY HARBOR INTL AP ANN HTG 99% CONDNS DB,3.1346440205E-004,1.0022881733E-003,Pass,Pass,1.7674210771E-004,7.7101983248E-004,Pass,Pass
 Warmup Convergence Information,THERMAL ZONE 2,SizingPeriod: PHOENIX SKY HARBOR INTL AP ANN HTG 99% CONDNS DB,2.2156104186E-003,1.2316260745E-003,Pass,Pass,2.0182992362E-003,1.4526974110E-003,Pass,Pass
 Warmup Convergence Information,THERMAL ZONE 8,SizingPeriod: PHOENIX SKY HARBOR INTL AP ANN HTG 99% CONDNS DB,2.1669985990E-003,1.4813070966E-003,Pass,Pass,1.6201530481E-003,1.4477412200E-003,Pass,Pass
 Warmup Convergence Information,THERMAL ZONE 12,SizingPeriod: PHOENIX SKY HARBOR INTL AP ANN HTG 99% CONDNS DB,2.8540983372E-005,2.1515663235E-005,Pass,Pass,2.4110285538E-005,1.8076845021E-005,Pass,Pass
Environment,PHOENIX SKY HARBOR INTL AP ANN CLG 2% CONDNS ENTH=>MDB,SizingPeriod:DesignDay,07/21,07/21,SummerDesignDay,1,N/A,N/A,N/A,N/A,N/A,N/A
Environment:Daylight Saving,No,SizingPeriod:DesignDay
Environment:Design Day Data,35.20,12.00,DefaultMultipliers,97342,260,4.1,0.00,No ,No 
Environment:Design_Day_Misc,202,1084.4,0.2082,0.1365,1.0,-6.23,20.6,ASHRAETau
Environment:WarmupDays,  6
 Warmup Convergence Information,THERMAL ZONE 4,SizingPeriod: PHOENIX SKY HARBOR INTL AP ANN CLG 2% CONDNS ENTH=>MDB,8.3588947310E-002,0.1300512611,Pass,Pass,4.0209451211E-002,3.4208017931E-002,Pass,Pass
 Warmup Convergence Information,THERMAL ZONE 3,SizingPeriod: PHOENIX SKY HARBOR INTL AP ANN CLG 2% CONDNS ENTH=>MDB,8.4160414057E-002,0.1561735663,Pass,Pass,1.8801975782,16.6230692508,Pass,Pass
 Warmup Convergence Information,THERMAL ZONE 9,SizingPeriod: PHOENIX SKY HARBOR INTL AP ANN CLG 2% CONDNS ENTH=>MDB,8.3755956799E-002,0.1349185593,Pass,Pass,0.5427551604,3.6044419963,Pass,Pass
 Warmup Convergence Information,THERMAL ZONE 13,SizingPeriod: PHOENIX SKY HARBOR INTL AP ANN CLG 2% CONDNS ENTH=>MDB,8.9108256319E-003,7.2620998365E-003,Pass,Pass,1.2447700940E-002,2.0473957833E-002,Pass,Pass
 Warmup Convergence Information,THERMAL ZONE 6,SizingPeriod: PHOENIX SKY HARBOR INTL AP ANN CLG 2% CONDNS ENTH=>MDB,4.3895719589E-003,4.9244284851E-003,Pass,Pass,4.1308193281E-003,4.4886399609E-003,Pass,Pass
 Warmup Convergence Information,THERMAL ZONE 15,SizingPeriod: PHOENIX SKY HARBOR INTL AP ANN CLG 2% CONDNS ENTH=>MDB,1.6586598403E-002,9.9989680950E-003,Pass,Pass,1.3439338262E-003,7.8347183759E-004,Pass,Pass
 Warmup Convergence Information,THERMAL ZONE 7,SizingPeriod: PHOENIX SKY HARBOR INTL AP ANN CLG 2% CONDNS ENTH=>MDB,8.3282972300E-002,5.1299844153E-002,Pass,Pass,1.5582518262E-002,2.1262465400E-002,Pass,Pass
 Warmup Convergence Information,THERMAL ZONE 10,SizingPeriod: PHOENIX SKY HARBOR INTL AP ANN CLG 2% CONDNS ENTH=>MDB,8.3357622359E-002,6.0107124230E-002,Pass,Pass,2.4185548263E-002,3.6544393177E-002,Pass,Pass
 Warmup Convergence Information,THERMAL ZONE 5,SizingPeriod: PHOENIX SKY HARBOR INTL AP ANN CLG 2% CONDNS ENTH=>MDB,8.4118860499E-002,0.2051486827,Pass,Pass,0.2202441200,0.4171779747,Pass,Pass
 Warmup Convergence Information,THERMAL ZONE 1,SizingPeriod: PHOENIX SKY HARBOR INTL AP ANN CLG 2% CONDNS ENTH=>MDB,8.3497270354E-002,0.1062870680,Pass,Pass,4.3626740538E-002,3.2464207401E-002,Pass,Pass
 Warmup Convergence Information,THERMAL ZONE 14,SizingPeriod: PHOENIX SKY HARBOR INTL AP ANN CLG 2% CONDNS ENTH=>MDB,8.3716054378E-002,0.1362512979,Pass,Pass,4.8685508653E-002,3.5719749734E-002,Pass,Pass
 Warmup Convergence Information,THERMAL ZONE 11,SizingPeriod: PHOENIX SKY HARBOR INTL AP ANN CLG 2% CONDNS ENTH=>MDB,8.3442434237E-002,0.1000468356,Pass,Pass,3.0725153680E-002,2.6335569185E-002,Pass,Pass
 Warmup Convergence Information,THERMAL ZONE 2,SizingPeriod: PHOENIX SKY HARBOR INTL AP ANN CLG 2% CONDNS ENTH=>MDB,8.3754567772E-002,0.1383143465,Pass,Pass,5.1746492020E-002,5.1425163772E-002,Pass,Pass
 Warmup Convergence Information,THERMAL ZONE 8,SizingPeriod: PHOENIX SKY HARBOR INTL AP ANN CLG 2% CONDNS ENTH=>MDB,8.3703848104E-002,0.1332421795,Pass,Pass,3.9025994332E-002,3.9718411932E-002,Pass,Pass
 Warmup Convergence Information,THERMAL ZONE 12,SizingPeriod: PHOENIX SKY HARBOR INTL AP ANN CLG 2% CONDNS ENTH=>MDB,3.4151430879E-002,6.9675376020E-002,Pass,Pass,1.0015852653,8.0694899854,Pass,Pass
Environment,PHOENIX SKY HARBOR INTL AP ANN CLG .4% CONDNS DP=>MDB,SizingPeriod:DesignDay,07/21,07/21,SummerDesignDay,1,N/A,N/A,N/A,N/A,N/A,N/A
Environment:Daylight Saving,No,SizingPeriod:DesignDay
Environment:Design Day Data,28.10,12.00,DefaultMultipliers,97342,260,4.1,0.00,No ,No 
Environment:Design_Day_Misc,202,1084.4,0.2082,0.1365,1.0,-6.23,20.6,ASHRAETau
Environment:WarmupDays,  6
 Warmup Convergence Information,THERMAL ZONE 4,SizingPeriod: PHOENIX SKY HARBOR INTL AP ANN CLG .4% CONDNS DP=>MDB,8.4072859362E-002,0.1495973984,Pass,Pass,0.2214533070,0.6207867205,Pass,Pass
 Warmup Convergence Information,THERMAL ZONE 3,SizingPeriod: PHOENIX SKY HARBOR INTL AP ANN CLG .4% CONDNS DP=>MDB,8.4088589247E-002,0.1663201194,Pass,Pass,0.3100985213,1.3316976967,Pass,Pass
 Warmup Convergence Information,THERMAL ZONE 9,SizingPeriod: PHOENIX SKY HARBOR INTL AP ANN CLG .4% CONDNS DP=>MDB,7.2945911310E-002,0.1162516478,Pass,Pass,0.1777023939,0.4828019945,Pass,Pass
 Warmup Convergence Information,THERMAL ZONE 13,SizingPeriod: PHOENIX SKY HARBOR INTL AP ANN CLG .4% CONDNS DP=>MDB,7.2875382517E-005,6.0329604718E-005,Pass,Pass,0.2171481342,0.5585234857,Pass,Pass
 Warmup Convergence Information,THERMAL ZONE 6,SizingPeriod: PHOENIX SKY HARBOR INTL AP ANN CLG .4% CONDNS DP=>MDB,8.4216642278E-003,6.5794734905E-003,Pass,Pass,1.7801312121E-003,2.0122090967E-003,Pass,Pass
 Warmup Convergence Information,THERMAL ZONE 15,SizingPeriod: PHOENIX SKY HARBOR INTL AP ANN CLG .4% CONDNS DP=>MDB,7.2950310773E-003,8.9977761240E-003,Pass,Pass,2.4480091217E-002,2.8994670612E-002,Pass,Pass
 Warmup Convergence Information,THERMAL ZONE 7,SizingPeriod: PHOENIX SKY HARBOR INTL AP ANN CLG .4% CONDNS DP=>MDB,4.6386504554E-002,5.7568644326E-002,Pass,Pass,0.3646922026,2.1465660545,Pass,Pass
 Warmup Convergence Information,THERMAL ZONE 10,SizingPeriod: PHOENIX SKY HARBOR INTL AP ANN CLG .4% CONDNS DP=>MDB,4.5960368434E-002,6.2233864909E-002,Pass,Pass,5.8982277777,55.7770475199,Pass,Pass
 Warmup Convergence Information,THERMAL ZONE 5,SizingPeriod: PHOENIX SKY HARBOR INTL AP ANN CLG .4% CONDNS DP=>MDB,8.4087788615E-002,0.2080516261,Pass,Pass,0.3018653274,0.9072096316,Pass,Pass
 Warmup Convergence Information,THERMAL ZONE 1,SizingPeriod: PHOENIX SKY HARBOR INTL AP ANN CLG .4% CONDNS DP=>MDB,7.8187513328E-002,9.8393204452E-002,Pass,Pass,0.4353530551,2.4271177462,Pass,Pass
 Warmup Convergence Information,THERMAL ZONE 14,SizingPeriod: PHOENIX SKY HARBOR INTL AP ANN CLG .4% CONDNS DP=>MDB,8.4068329263E-002,0.1513174789,Pass,Pass,0.3492104505,1.8529939117,Pass,Pass
 Warmup Convergence Information,THERMAL ZONE 11,SizingPeriod: PHOENIX SKY HARBOR INTL AP ANN CLG .4% CONDNS DP=>MDB,7.3865973228E-002,9.1913814460E-002,Pass,Pass,0.1800970065,0.4165851005,Pass,Pass
 Warmup Convergence Information,THERMAL ZONE 2,SizingPeriod: PHOENIX SKY HARBOR INTL AP ANN CLG .4% CONDNS DP=>MDB,8.4105921048E-002,0.1317681446,Pass,Pass,0.3101801051,1.6801170960,Pass,Pass
 Warmup Convergence Information,THERMAL ZONE 8,SizingPeriod: PHOENIX SKY HARBOR INTL AP ANN CLG .4% CONDNS DP=>MDB,8.4118970428E-002,0.1266371643,Pass,Pass,0.1723976572,0.4855317014,Pass,Pass
 Warmup Convergence Information,THERMAL ZONE 12,SizingPeriod: PHOENIX SKY HARBOR INTL AP ANN CLG .4% CONDNS DP=>MDB,2.2530126806E-003,6.3762386848E-003,Pass,Pass,0.2767514806,1.2087772121,Pass,Pass
Environment,PHOENIX SKY HARBOR INTL AP ANN HUM_N 99% CONDNS DP=>MCDB,SizingPeriod:DesignDay,12/21,12/21,WinterDesignDay,1,N/A,N/A,N/A,N/A,N/A,N/A
Environment:Daylight Saving,No,SizingPeriod:DesignDay
Environment:Design Day Data,17.00,0.00,DefaultMultipliers,97342,100,1.7,0.00,No ,No 
Environment:Design_Day_Misc,355,1232.8,0.1424,5.7719E-002,1.0,2.45,-23.5,ASHRAEClearSky
Environment:WarmupDays,  6
 Warmup Convergence Information,THERMAL ZONE 4,SizingPeriod: PHOENIX SKY HARBOR INTL AP ANN HUM_N 99% CONDNS DP=>MCDB,4.0163831849E-003,1.0935661519E-003,Pass,Pass,1.0676279619E-002,1.6733934216E-003,Pass,Pass
 Warmup Convergence Information,THERMAL ZONE 3,SizingPeriod: PHOENIX SKY HARBOR INTL AP ANN HUM_N 99% CONDNS DP=>MCDB,1.9762138708E-005,1.3805562214E-005,Pass,Pass,2.1039552573E-005,1.4425416961E-005,Pass,Pass
 Warmup Convergence Information,THERMAL ZONE 9,SizingPeriod: PHOENIX SKY HARBOR INTL AP ANN HUM_N 99% CONDNS DP=>MCDB,3.3935976427E-003,8.4476051789E-004,Pass,Pass,5.5840849006E-003,1.6510393557E-003,Pass,Pass
 Warmup Convergence Information,THERMAL ZONE 13,SizingPeriod: PHOENIX SKY HARBOR INTL AP ANN HUM_N 99% CONDNS DP=>MCDB,3.2904961880E-006,2.0399331426E-006,Pass,Pass,2.7740355659E-005,1.8678449095E-005,Pass,Pass
 Warmup Convergence Information,THERMAL ZONE 6,SizingPeriod: PHOENIX SKY HARBOR INTL AP ANN HUM_N 99% CONDNS DP=>MCDB,9.2449288591E-006,6.1805450243E-006,Pass,Pass,2.6258684299E-005,1.7567503346E-005,Pass,Pass
 Warmup Convergence Information,THERMAL ZONE 15,SizingPeriod: PHOENIX SKY HARBOR INTL AP ANN HUM_N 99% CONDNS DP=>MCDB,2.3697035202E-004,2.7921507229E-004,Pass,Pass,1.1345300224E-003,1.6077476222E-003,Pass,Pass
 Warmup Convergence Information,THERMAL ZONE 7,SizingPeriod: PHOENIX SKY HARBOR INTL AP ANN HUM_N 99% CONDNS DP=>MCDB,2.2716630758E-003,1.2549862692E-003,Pass,Pass,3.3632916211E-003,2.6724689399E-003,Pass,Pass
 Warmup Convergence Information,THERMAL ZONE 10,SizingPeriod: PHOENIX SKY HARBOR INTL AP ANN HUM_N 99% CONDNS DP=>MCDB,2.0957653209E-003,1.3103456289E-003,Pass,Pass,5.3403961545E-003,3.2871809212E-003,Pass,Pass
 Warmup Convergence Information,THERMAL ZONE 5,SizingPeriod: PHOENIX SKY HARBOR INTL AP ANN HUM_N 99% CONDNS DP=>MCDB,1.9688212968E-005,1.3938584025E-005,Pass,Pass,2.1472347257E-005,1.4548063080E-005,Pass,Pass
 Warmup Convergence Information,THERMAL ZONE 1,SizingPeriod: PHOENIX SKY HARBOR INTL AP ANN HUM_N 99% CONDNS DP=>MCDB,2.2170702604E-003,8.8632356557E-004,Pass,Pass,4.4944967351E-003,2.5176728512E-003,Pass,Pass
 Warmup Convergence Information,THERMAL ZONE 14,SizingPeriod: PHOENIX SKY HARBOR INTL AP ANN HUM_N 99% CONDNS DP=>MCDB,1.9589490972E-003,1.8147026423E-004,Pass,Pass,5.7286877810E-003,5.5079423481E-004,Pass,Pass
 Warmup Convergence Information,THERMAL ZONE 11,SizingPeriod: PHOENIX SKY HARBOR INTL AP ANN HUM_N 99% CONDNS DP=>MCDB,2.2424891572E-003,2.1603196981E-005,Pass,Pass,6.2123060800E-003,3.8695662879E-005,Pass,Pass
 Warmup Convergence Information,THERMAL ZONE 2,SizingPeriod: PHOENIX SKY HARBOR INTL AP ANN HUM_N 99% CONDNS DP=>MCDB,2.3347993152E-005,1.6652999649E-005,Pass,Pass,4.0420778362E-005,2.6621051887E-005,Pass,Pass
 Warmup Convergence Information,THERMAL ZONE 8,SizingPeriod: PHOENIX SKY HARBOR INTL AP ANN HUM_N 99% CONDNS DP=>MCDB,3.6357364914E-003,3.0547042201E-005,Pass,Pass,9.7631043644E-003,6.6444713370E-005,Pass,Pass
 Warmup Convergence Information,THERMAL ZONE 12,SizingPeriod: PHOENIX SKY HARBOR INTL AP ANN HUM_N 99% CONDNS DP=>MCDB,3.3897498942E-003,8.3019449686E-004,Pass,Pass,5.5817772886E-003,1.6457822511E-003,Pass,Pass
Environment,PHOENIX SKY HARBOR INTL AP ANN HTG 99.6% CONDNS DB,SizingPeriod:DesignDay,12/21,12/21,WinterDesignDay,1,N/A,N/A,N/A,N/A,N/A,N/A
Environment:Daylight Saving,No,SizingPeriod:DesignDay
Environment:Design Day Data,3.70,0.00,DefaultMultipliers,97342,100,1.7,0.00,No ,No 
Environment:Design_Day_Misc,355,1232.8,0.1424,5.7719E-002,1.0,2.45,-23.5,ASHRAEClearSky
Environment:WarmupDays,  6
 Warmup Convergence Information,THERMAL ZONE 4,SizingPeriod: PHOENIX SKY HARBOR INTL AP ANN HTG 99.6% CONDNS DB,4.4371440241E-003,1.9718286550E-003,Pass,Pass,5.1360915296E-003,1.8969913518E-003,Pass,Pass
 Warmup Convergence Information,THERMAL ZONE 3,SizingPeriod: PHOENIX SKY HARBOR INTL AP ANN HTG 99.6% CONDNS DB,1.2488367533E-004,5.9728461865E-004,Pass,Pass,6.9739448648E-005,3.9130897731E-004,Pass,Pass
 Warmup Convergence Information,THERMAL ZONE 9,SizingPeriod: PHOENIX SKY HARBOR INTL AP ANN HTG 99.6% CONDNS DB,2.5984948475E-005,1.7701491961E-005,Pass,Pass,2.3849635437E-005,1.6035653693E-005,Pass,Pass
 Warmup Convergence Information,THERMAL ZONE 13,SizingPeriod: PHOENIX SKY HARBOR INTL AP ANN HTG 99.6% CONDNS DB,1.1207321650E-004,2.1199547079E-005,Pass,Pass,2.5305684680E-005,1.6338391546E-005,Pass,Pass
 Warmup Convergence Information,THERMAL ZONE 6,SizingPeriod: PHOENIX SKY HARBOR INTL AP ANN HTG 99.6% CONDNS DB,3.5629581047E-005,1.0248840542E-005,Pass,Pass,2.2997463060E-005,1.5402314236E-005,Pass,Pass
 Warmup Convergence Information,THERMAL ZONE 15,SizingPeriod: PHOENIX SKY HARBOR INTL AP ANN HTG 99.6% CONDNS DB,1.2428471738E-004,2.4643538084E-005,Pass,Pass,2.6683705634E-005,1.7207395848E-005,Pass,Pass
 Warmup Convergence Information,THERMAL ZONE 7,SizingPeriod: PHOENIX SKY HARBOR INTL AP ANN HTG 99.6% CONDNS DB,3.8407612517E-003,1.9615557895E-003,Pass,Pass,4.8032513638E-003,1.6544634417E-003,Pass,Pass
 Warmup Convergence Information,THERMAL ZONE 10,SizingPeriod: PHOENIX SKY HARBOR INTL AP ANN HTG 99.6% CONDNS DB,3.9227873082E-005,1.1974767910E-005,Pass,Pass,8.8983485786E-006,5.6284523812E-006,Pass,Pass
 Warmup Convergence Information,THERMAL ZONE 5,SizingPeriod: PHOENIX SKY HARBOR INTL AP ANN HTG 99.6% CONDNS DB,2.3839400149E-005,1.7724011917E-005,Pass,Pass,2.0016836395E-005,1.3542070928E-005,Pass,Pass
 Warmup Convergence Information,THERMAL ZONE 1,SizingPeriod: PHOENIX SKY HARBOR INTL AP ANN HTG 99.6% CONDNS DB,4.0141163875E-005,1.1328371449E-005,Pass,Pass,9.0094265873E-006,6.0345960487E-006,Pass,Pass
 Warmup Convergence Information,THERMAL ZONE 14,SizingPeriod: PHOENIX SKY HARBOR INTL AP ANN HTG 99.6% CONDNS DB,4.7083296404E-003,5.8641582846E-004,Pass,Pass,6.5261502420E-003,8.1399146358E-004,Pass,Pass
 Warmup Convergence Information,THERMAL ZONE 11,SizingPeriod: PHOENIX SKY HARBOR INTL AP ANN HTG 99.6% CONDNS DB,5.5373110816E-003,7.2047366154E-004,Pass,Pass,6.9372687970E-003,9.3675726453E-004,Pass,Pass
 Warmup Convergence Information,THERMAL ZONE 2,SizingPeriod: PHOENIX SKY HARBOR INTL AP ANN HTG 99.6% CONDNS DB,4.7425764445E-005,2.7919934037E-005,Pass,Pass,2.4728666487E-005,1.6696259060E-005,Pass,Pass
 Warmup Convergence Information,THERMAL ZONE 8,SizingPeriod: PHOENIX SKY HARBOR INTL AP ANN HTG 99.6% CONDNS DB,2.6122429068E-003,2.6605238281E-003,Pass,Pass,1.8083393098E-003,2.1624502629E-003,Pass,Pass
 Warmup Convergence Information,THERMAL ZONE 12,SizingPeriod: PHOENIX SKY HARBOR INTL AP ANN HTG 99.6% CONDNS DB,2.6627525978E-005,1.8132654877E-005,Pass,Pass,2.3980793490E-005,1.6123562666E-005,Pass,Pass
Environment,PHOENIX SKY HARBOR INTL AP ANN CLG 2% CONDNS DB=>MWB,SizingPeriod:DesignDay,07/21,07/21,SummerDesignDay,1,N/A,N/A,N/A,N/A,N/A,N/A
Environment:Daylight Saving,No,SizingPeriod:DesignDay
Environment:Design Day Data,41.20,12.00,DefaultMultipliers,97342,260,4.1,0.00,No ,No 
Environment:Design_Day_Misc,202,1084.4,0.2082,0.1365,1.0,-6.23,20.6,ASHRAETau
Environment:WarmupDays,  6
 Warmup Convergence Information,THERMAL ZONE 4,SizingPeriod: PHOENIX SKY HARBOR INTL AP ANN CLG 2% CONDNS DB=>MWB,8.3351639709E-002,9.7195983872E-002,Pass,Pass,2.8296457447E-002,3.3502561540E-002,Pass,Pass
 Warmup Convergence Information,THERMAL ZONE 3,SizingPeriod: PHOENIX SKY HARBOR INTL AP ANN CLG 2% CONDNS DB=>MWB,8.3966235289E-002,0.1640434652,Pass,Pass,0.2829592405,1.4268008484,Pass,Pass
 Warmup Convergence Information,THERMAL ZONE 9,SizingPeriod: PHOENIX SKY HARBOR INTL AP ANN CLG 2% CONDNS DB=>MWB,8.3668692030E-002,0.1364140211,Pass,Pass,0.2609035734,0.9451845041,Pass,Pass
 Warmup Convergence Information,THERMAL ZONE 13,SizingPeriod: PHOENIX SKY HARBOR INTL AP ANN CLG 2% CONDNS DB=>MWB,1.1343969164E-002,5.0627309610E-003,Pass,Pass,9.9679008385E-004,4.1076456665E-004,Pass,Pass
 Warmup Convergence Information,THERMAL ZONE 6,SizingPeriod: PHOENIX SKY HARBOR INTL AP ANN CLG 2% CONDNS DB=>MWB,7.8397066867E-004,8.0683875695E-004,Pass,Pass,6.3717020728E-003,4.8632815165E-003,Pass,Pass
 Warmup Convergence Information,THERMAL ZONE 15,SizingPeriod: PHOENIX SKY HARBOR INTL AP ANN CLG 2% CONDNS DB=>MWB,1.5421941493E-002,9.0049676030E-003,Pass,Pass,1.1375316382E-003,6.8987446288E-004,Pass,Pass
 Warmup Convergence Information,THERMAL ZONE 7,SizingPeriod: PHOENIX SKY HARBOR INTL AP ANN CLG 2% CONDNS DB=>MWB,4.6318576392E-002,5.4474866728E-002,Pass,Pass,2.0637808609E-002,2.4204511959E-002,Pass,Pass
 Warmup Convergence Information,THERMAL ZONE 10,SizingPeriod: PHOENIX SKY HARBOR INTL AP ANN CLG 2% CONDNS DB=>MWB,6.3239000179E-002,6.0609212570E-002,Pass,Pass,2.1410247689E-002,3.1538649325E-002,Pass,Pass
 Warmup Convergence Information,THERMAL ZONE 5,SizingPeriod: PHOENIX SKY HARBOR INTL AP ANN CLG 2% CONDNS DB=>MWB,8.4023781915E-002,0.1928916524,Pass,Pass,0.3861386745,1.9317898300,Pass,Pass
 Warmup Convergence Information,THERMAL ZONE 1,SizingPeriod: PHOENIX SKY HARBOR INTL AP ANN CLG 2% CONDNS DB=>MWB,8.3301121426E-002,9.3021905874E-002,Pass,Pass,2.5045304356E-002,2.4932531517E-002,Pass,Pass
 Warmup Convergence Information,THERMAL ZONE 14,SizingPeriod: PHOENIX SKY HARBOR INTL AP ANN CLG 2% CONDNS DB=>MWB,8.3485633442E-002,0.1115199224,Pass,Pass,3.4354649548E-002,3.5304259123E-002,Pass,Pass
 Warmup Convergence Information,THERMAL ZONE 11,SizingPeriod: PHOENIX SKY HARBOR INTL AP ANN CLG 2% CONDNS DB=>MWB,7.2657453863E-002,8.0743673622E-002,Pass,Pass,2.1126794563E-002,2.3445597218E-002,Pass,Pass
 Warmup Convergence Information,THERMAL ZONE 2,SizingPeriod: PHOENIX SKY HARBOR INTL AP ANN CLG 2% CONDNS DB=>MWB,8.3468267261E-002,0.1390962165,Pass,Pass,3.4553965704E-002,3.5091021432E-002,Pass,Pass
 Warmup Convergence Information,THERMAL ZONE 8,SizingPeriod: PHOENIX SKY HARBOR INTL AP ANN CLG 2% CONDNS DB=>MWB,8.3323443856E-002,0.1353182692,Pass,Pass,2.7243378434E-002,3.1047233785E-002,Pass,Pass
 Warmup Convergence Information,THERMAL ZONE 12,SizingPeriod: PHOENIX SKY HARBOR INTL AP ANN CLG 2% CONDNS DB=>MWB,5.8386838727E-002,8.5222439916E-002,Pass,Pass,0.1552765158,0.3869194295,Pass,Pass
Environment,PHOENIX SKY HARBOR INTL AP ANN CLG .4% CONDNS DB=>MWB,SizingPeriod:DesignDay,07/21,07/21,SummerDesignDay,1,N/A,N/A,N/A,N/A,N/A,N/A
Environment:Daylight Saving,No,SizingPeriod:DesignDay
Environment:Design Day Data,43.40,12.00,DefaultMultipliers,97342,260,4.1,0.00,No ,No 
Environment:Design_Day_Misc,202,1084.4,0.2082,0.1365,1.0,-6.23,20.6,ASHRAETau
Environment:WarmupDays,  8
 Warmup Convergence Information,THERMAL ZONE 4,SizingPeriod: PHOENIX SKY HARBOR INTL AP ANN CLG .4% CONDNS DB=>MWB,8.0778650833E-002,8.1606106022E-002,Pass,Pass,2.5021814371E-002,3.3059797498E-002,Pass,Pass
 Warmup Convergence Information,THERMAL ZONE 3,SizingPeriod: PHOENIX SKY HARBOR INTL AP ANN CLG .4% CONDNS DB=>MWB,8.3782188163E-002,0.1660092412,Pass,Pass,0.2217912891,0.7805428469,Pass,Pass
 Warmup Convergence Information,THERMAL ZONE 9,SizingPeriod: PHOENIX SKY HARBOR INTL AP ANN CLG .4% CONDNS DB=>MWB,8.3621749818E-002,0.1344288593,Pass,Pass,0.1718332366,0.3098202615,Pass,Pass
 Warmup Convergence Information,THERMAL ZONE 13,SizingPeriod: PHOENIX SKY HARBOR INTL AP ANN CLG .4% CONDNS DB=>MWB,1.0967856827E-002,4.9990835948E-003,Pass,Pass,9.3699361158E-004,4.3852672451E-004,Pass,Pass
 Warmup Convergence Information,THERMAL ZONE 6,SizingPeriod: PHOENIX SKY HARBOR INTL AP ANN CLG .4% CONDNS DB=>MWB,6.7585363980E-004,5.8626624183E-004,Pass,Pass,7.0179599919E-003,4.8903053307E-003,Pass,Pass
 Warmup Convergence Information,THERMAL ZONE 15,SizingPeriod: PHOENIX SKY HARBOR INTL AP ANN CLG .4% CONDNS DB=>MWB,1.4751124785E-002,8.9234993523E-003,Pass,Pass,1.0703192863E-003,6.4025194416E-004,Pass,Pass
 Warmup Convergence Information,THERMAL ZONE 7,SizingPeriod: PHOENIX SKY HARBOR INTL AP ANN CLG .4% CONDNS DB=>MWB,3.1792687280E-002,5.2888143719E-002,Pass,Pass,2.2225077935E-002,2.1218881979E-002,Pass,Pass
 Warmup Convergence Information,THERMAL ZONE 10,SizingPeriod: PHOENIX SKY HARBOR INTL AP ANN CLG .4% CONDNS DB=>MWB,5.0343488051E-002,5.9979292451E-002,Pass,Pass,2.3338811491E-002,3.0268342150E-002,Pass,Pass
 Warmup Convergence Information,THERMAL ZONE 5,SizingPeriod: PHOENIX SKY HARBOR INTL AP ANN CLG .4% CONDNS DB=>MWB,8.4075213152E-002,0.1807737470,Pass,Pass,0.2338273310,0.7509009043,Pass,Pass
 Warmup Convergence Information,THERMAL ZONE 1,SizingPeriod: PHOENIX SKY HARBOR INTL AP ANN CLG .4% CONDNS DB=>MWB,7.6491110032E-002,8.4169304485E-002,Pass,Pass,2.3263171156E-002,2.7083237107E-002,Pass,Pass
 Warmup Convergence Information,THERMAL ZONE 14,SizingPeriod: PHOENIX SKY HARBOR INTL AP ANN CLG .4% CONDNS DB=>MWB,8.3412902633E-002,9.9908205421E-002,Pass,Pass,3.0458255122E-002,3.5680854578E-002,Pass,Pass
 Warmup Convergence Information,THERMAL ZONE 11,SizingPeriod: PHOENIX SKY HARBOR INTL AP ANN CLG .4% CONDNS DB=>MWB,5.8322692919E-002,7.0618407051E-002,Pass,Pass,2.2224689742E-002,2.4284290720E-002,Pass,Pass
 Warmup Convergence Information,THERMAL ZONE 2,SizingPeriod: PHOENIX SKY HARBOR INTL AP ANN CLG .4% CONDNS DB=>MWB,8.3463996421E-002,0.1368275565,Pass,Pass,3.0560298084E-002,3.0802801177E-002,Pass,Pass
 Warmup Convergence Information,THERMAL ZONE 8,SizingPeriod: PHOENIX SKY HARBOR INTL AP ANN CLG .4% CONDNS DB=>MWB,8.0723876224E-002,0.1295925809,Pass,Pass,2.3671574278E-002,3.0555034529E-002,Pass,Pass
 Warmup Convergence Information,THERMAL ZONE 12,SizingPeriod: PHOENIX SKY HARBOR INTL AP ANN CLG .4% CONDNS DB=>MWB,6.8500686150E-002,8.7670064974E-002,Pass,Pass,0.6357435214,5.1059077827,Pass,Pass
Environment,PHOENIX SKY HARBOR INTL AP ANN HTG WIND 99.6% CONDNS WS=>MCDB,SizingPeriod:DesignDay,12/21,12/21,WinterDesignDay,1,N/A,N/A,N/A,N/A,N/A,N/A
Environment:Daylight Saving,No,SizingPeriod:DesignDay
Environment:Design Day Data,14.80,0.00,DefaultMultipliers,97342,100,8.2,0.00,No ,No 
Environment:Design_Day_Misc,355,1232.8,0.1424,5.7719E-002,1.0,2.45,-23.5,ASHRAEClearSky
Environment:WarmupDays,  6
 Warmup Convergence Information,THERMAL ZONE 4,SizingPeriod: PHOENIX SKY HARBOR INTL AP ANN HTG WIND 99.6% CONDNS WS=>MCDB,1.9904825409E-003,1.3005831049E-003,Pass,Pass,2.9394565602E-003,2.5378350638E-003,Pass,Pass
 Warmup Convergence Information,THERMAL ZONE 3,SizingPeriod: PHOENIX SKY HARBOR INTL AP ANN HTG WIND 99.6% CONDNS WS=>MCDB,2.0765748743E-005,1.2453708959E-005,Pass,Pass,2.5802689251E-005,1.6721859431E-005,Pass,Pass
 Warmup Convergence Information,THERMAL ZONE 9,SizingPeriod: PHOENIX SKY HARBOR INTL AP ANN HTG WIND 99.6% CONDNS WS=>MCDB,2.4370966372E-005,1.4479841768E-005,Pass,Pass,3.0642511484E-005,2.0742156946E-005,Pass,Pass
 Warmup Convergence Information,THERMAL ZONE 13,SizingPeriod: PHOENIX SKY HARBOR INTL AP ANN HTG WIND 99.6% CONDNS WS=>MCDB,2.9196352854E-006,2.1086896290E-006,Pass,Pass,3.5025991000E-005,2.2922942828E-005,Pass,Pass
 Warmup Convergence Information,THERMAL ZONE 6,SizingPeriod: PHOENIX SKY HARBOR INTL AP ANN HTG WIND 99.6% CONDNS WS=>MCDB,8.9125390579E-006,5.5143667843E-006,Pass,Pass,3.2914564612E-005,2.1603555720E-005,Pass,Pass
 Warmup Convergence Information,THERMAL ZONE 15,SizingPeriod: PHOENIX SKY HARBOR INTL AP ANN HTG WIND 99.6% CONDNS WS=>MCDB,3.8652729597E-004,2.0487495363E-004,Pass,Pass,3.4331305540E-003,2.1630851867E-003,Pass,Pass
 Warmup Convergence Information,THERMAL ZONE 7,SizingPeriod: PHOENIX SKY HARBOR INTL AP ANN HTG WIND 99.6% CONDNS WS=>MCDB,1.8361605807E-003,1.3840795843E-003,Pass,Pass,2.5558501316E-003,2.6267124852E-003,Pass,Pass
 Warmup Convergence Information,THERMAL ZONE 10,SizingPeriod: PHOENIX SKY HARBOR INTL AP ANN HTG WIND 99.6% CONDNS WS=>MCDB,2.4804110616E-003,8.1145531191E-004,Pass,Pass,6.7498456106E-003,2.3244128894E-003,Pass,Pass
 Warmup Convergence Information,THERMAL ZONE 5,SizingPeriod: PHOENIX SKY HARBOR INTL AP ANN HTG WIND 99.6% CONDNS WS=>MCDB,3.0575744634E-003,1.0475304819E-003,Pass,Pass,5.4137214128E-003,1.0933521515E-003,Pass,Pass
 Warmup Convergence Information,THERMAL ZONE 1,SizingPeriod: PHOENIX SKY HARBOR INTL AP ANN HTG WIND 99.6% CONDNS WS=>MCDB,2.0722615869E-003,8.3704726040E-004,Pass,Pass,3.9590090908E-003,2.2233481165E-003,Pass,Pass
 Warmup Convergence Information,THERMAL ZONE 14,SizingPeriod: PHOENIX SKY HARBOR INTL AP ANN HTG WIND 99.6% CONDNS WS=>MCDB,1.8897823216E-003,3.2501351739E-005,Pass,Pass,5.2369276055E-003,6.3465784478E-005,Pass,Pass
 Warmup Convergence Information,THERMAL ZONE 11,SizingPeriod: PHOENIX SKY HARBOR INTL AP ANN HTG WIND 99.6% CONDNS WS=>MCDB,2.5066839556E-003,1.0672323414E-003,Pass,Pass,4.0996306425E-003,2.6518302439E-003,Pass,Pass
 Warmup Convergence Information,THERMAL ZONE 2,SizingPeriod: PHOENIX SKY HARBOR INTL AP ANN HTG WIND 99.6% CONDNS WS=>MCDB,3.2742123359E-003,2.8147729507E-005,Pass,Pass,9.0924597555E-003,6.7825742771E-005,Pass,Pass
 Warmup Convergence Information,THERMAL ZONE 8,SizingPeriod: PHOENIX SKY HARBOR INTL AP ANN HTG WIND 99.6% CONDNS WS=>MCDB,3.0799129434E-003,1.7005390924E-003,Pass,Pass,7.6567326099E-003,2.2070394736E-003,Pass,Pass
 Warmup Convergence Information,THERMAL ZONE 12,SizingPeriod: PHOENIX SKY HARBOR INTL AP ANN HTG WIND 99.6% CONDNS WS=>MCDB,2.4380263068E-005,1.4460030496E-005,Pass,Pass,3.0639151794E-005,2.0745234784E-005,Pass,Pass
Environment,PHOENIX SKY HARBOR INTL AP ANN CLG 1% CONDNS ENTH=>MDB,SizingPeriod:DesignDay,07/21,07/21,SummerDesignDay,1,N/A,N/A,N/A,N/A,N/A,N/A
Environment:Daylight Saving,No,SizingPeriod:DesignDay
Environment:Design Day Data,35.40,12.00,DefaultMultipliers,97342,260,4.1,0.00,No ,No 
Environment:Design_Day_Misc,202,1084.4,0.2082,0.1365,1.0,-6.23,20.6,ASHRAETau
Environment:WarmupDays,  6
 Warmup Convergence Information,THERMAL ZONE 4,SizingPeriod: PHOENIX SKY HARBOR INTL AP ANN CLG 1% CONDNS ENTH=>MDB,8.3704785926E-002,0.1292868340,Pass,Pass,3.9713642984E-002,3.4340332574E-002,Pass,Pass
 Warmup Convergence Information,THERMAL ZONE 3,SizingPeriod: PHOENIX SKY HARBOR INTL AP ANN CLG 1% CONDNS ENTH=>MDB,8.3782422303E-002,0.1585141477,Pass,Pass,0.1995692002,0.5070810467,Pass,Pass
 Warmup Convergence Information,THERMAL ZONE 9,SizingPeriod: PHOENIX SKY HARBOR INTL AP ANN CLG 1% CONDNS ENTH=>MDB,8.3814593020E-002,0.1355335117,Pass,Pass,0.2895489767,1.0022237315,Pass,Pass
 Warmup Convergence Information,THERMAL ZONE 13,SizingPeriod: PHOENIX SKY HARBOR INTL AP ANN CLG 1% CONDNS ENTH=>MDB,9.4304544696E-003,7.0981243498E-003,Pass,Pass,9.9108980875E-003,1.9840608479E-002,Pass,Pass
 Warmup Convergence Information,THERMAL ZONE 6,SizingPeriod: PHOENIX SKY HARBOR INTL AP ANN CLG 1% CONDNS ENTH=>MDB,4.1774316178E-003,4.7460011227E-003,Pass,Pass,4.0098335871E-003,4.6344442463E-003,Pass,Pass
 Warmup Convergence Information,THERMAL ZONE 15,SizingPeriod: PHOENIX SKY HARBOR INTL AP ANN CLG 1% CONDNS ENTH=>MDB,1.6588699354E-002,9.9330773549E-003,Pass,Pass,1.3386068250E-003,7.8131708914E-004,Pass,Pass
 Warmup Convergence Information,THERMAL ZONE 7,SizingPeriod: PHOENIX SKY HARBOR INTL AP ANN CLG 1% CONDNS ENTH=>MDB,8.3290615595E-002,5.0199569474E-002,Pass,Pass,1.4647507111E-002,2.1319870577E-002,Pass,Pass
 Warmup Convergence Information,THERMAL ZONE 10,SizingPeriod: PHOENIX SKY HARBOR INTL AP ANN CLG 1% CONDNS ENTH=>MDB,8.3351868471E-002,5.8836724103E-002,Pass,Pass,2.3535938912E-002,3.5144448593E-002,Pass,Pass
 Warmup Convergence Information,THERMAL ZONE 5,SizingPeriod: PHOENIX SKY HARBOR INTL AP ANN CLG 1% CONDNS ENTH=>MDB,8.4072394109E-002,0.2045682629,Pass,Pass,0.2494454018,0.5943507038,Pass,Pass
 Warmup Convergence Information,THERMAL ZONE 1,SizingPeriod: PHOENIX SKY HARBOR INTL AP ANN CLG 1% CONDNS ENTH=>MDB,8.3541303754E-002,0.1061512511,Pass,Pass,4.2534492600E-002,3.2304165160E-002,Pass,Pass
 Warmup Convergence Information,THERMAL ZONE 14,SizingPeriod: PHOENIX SKY HARBOR INTL AP ANN CLG 1% CONDNS ENTH=>MDB,8.3719145708E-002,0.1354582249,Pass,Pass,4.8069154555E-002,3.5898348170E-002,Pass,Pass
 Warmup Convergence Information,THERMAL ZONE 11,SizingPeriod: PHOENIX SKY HARBOR INTL AP ANN CLG 1% CONDNS ENTH=>MDB,8.3425798924E-002,0.1002588173,Pass,Pass,3.0148972668E-002,2.6102603924E-002,Pass,Pass
 Warmup Convergence Information,THERMAL ZONE 2,SizingPeriod: PHOENIX SKY HARBOR INTL AP ANN CLG 1% CONDNS ENTH=>MDB,8.3751463216E-002,0.1429650343,Pass,Pass,5.0637517253E-002,5.0145908634E-002,Pass,Pass
 Warmup Convergence Information,THERMAL ZONE 8,SizingPeriod: PHOENIX SKY HARBOR INTL AP ANN CLG 1% CONDNS ENTH=>MDB,8.3559346210E-002,0.1371828531,Pass,Pass,3.8555309886E-002,3.9088929630E-002,Pass,Pass
 Warmup Convergence Information,THERMAL ZONE 12,SizingPeriod: PHOENIX SKY HARBOR INTL AP ANN CLG 1% CONDNS ENTH=>MDB,3.5077615880E-002,7.0957149217E-002,Pass,Pass,0.4136487540,1.9857679425,Pass,Pass
Environment,PHOENIX SKY HARBOR INTL AP ANN HTG WIND 99% CONDNS WS=>MCDB,SizingPeriod:DesignDay,12/21,12/21,WinterDesignDay,1,N/A,N/A,N/A,N/A,N/A,N/A
Environment:Daylight Saving,No,SizingPeriod:DesignDay
Environment:Design Day Data,15.10,0.00,DefaultMultipliers,97342,100,7.3,0.00,No ,No 
Environment:Design_Day_Misc,355,1232.8,0.1424,5.7719E-002,1.0,2.45,-23.5,ASHRAEClearSky
Environment:WarmupDays,  6
 Warmup Convergence Information,THERMAL ZONE 4,SizingPeriod: PHOENIX SKY HARBOR INTL AP ANN HTG WIND 99% CONDNS WS=>MCDB,4.1469931070E-003,2.7148124912E-005,Pass,Pass,1.1134399809E-002,7.7978364801E-005,Pass,Pass
 Warmup Convergence Information,THERMAL ZONE 3,SizingPeriod: PHOENIX SKY HARBOR INTL AP ANN HTG WIND 99% CONDNS WS=>MCDB,3.1566241630E-003,1.4377664497E-003,Pass,Pass,3.4628617461E-003,2.3176371259E-003,Pass,Pass
 Warmup Convergence Information,THERMAL ZONE 9,SizingPeriod: PHOENIX SKY HARBOR INTL AP ANN HTG WIND 99% CONDNS WS=>MCDB,2.2757256602E-005,1.6782141190E-005,Pass,Pass,3.5984858315E-005,2.5133653608E-005,Pass,Pass
 Warmup Convergence Information,THERMAL ZONE 13,SizingPeriod: PHOENIX SKY HARBOR INTL AP ANN HTG WIND 99% CONDNS WS=>MCDB,2.7704723293E-006,2.2153840112E-006,Pass,Pass,4.0084001705E-005,2.8723379227E-005,Pass,Pass
 Warmup Convergence Information,THERMAL ZONE 6,SizingPeriod: PHOENIX SKY HARBOR INTL AP ANN HTG WIND 99% CONDNS WS=>MCDB,8.3507721682E-006,6.4173324226E-006,Pass,Pass,3.7704275778E-005,2.6948323940E-005,Pass,Pass
 Warmup Convergence Information,THERMAL ZONE 15,SizingPeriod: PHOENIX SKY HARBOR INTL AP ANN HTG WIND 99% CONDNS WS=>MCDB,4.7384796799E-004,3.1147041294E-004,Pass,Pass,5.1497719328E-003,4.0751528986E-003,Pass,Pass
 Warmup Convergence Information,THERMAL ZONE 7,SizingPeriod: PHOENIX SKY HARBOR INTL AP ANN HTG WIND 99% CONDNS WS=>MCDB,1.3172941497E-005,1.0342138459E-005,Pass,Pass,3.1038636477E-005,2.2302053778E-005,Pass,Pass
 Warmup Convergence Information,THERMAL ZONE 10,SizingPeriod: PHOENIX SKY HARBOR INTL AP ANN HTG WIND 99% CONDNS WS=>MCDB,1.2960971896E-005,1.0120443321E-005,Pass,Pass,3.2410732475E-005,2.3175037473E-005,Pass,Pass
 Warmup Convergence Information,THERMAL ZONE 5,SizingPeriod: PHOENIX SKY HARBOR INTL AP ANN HTG WIND 99% CONDNS WS=>MCDB,1.4133056577E-003,1.1523501096E-003,Pass,Pass,1.3396136917E-003,1.4798264314E-003,Pass,Pass
 Warmup Convergence Information,THERMAL ZONE 1,SizingPeriod: PHOENIX SKY HARBOR INTL AP ANN HTG WIND 99% CONDNS WS=>MCDB,1.8788166623E-003,1.4351045262E-005,Pass,Pass,5.5467911936E-003,3.1553592953E-005,Pass,Pass
 Warmup Convergence Information,THERMAL ZONE 14,SizingPeriod: PHOENIX SKY HARBOR INTL AP ANN HTG WIND 99% CONDNS WS=>MCDB,2.6513221955E-005,2.0159734067E-005,Pass,Pass,6.3479028739E-005,4.5019893886E-005,Pass,Pass
 Warmup Convergence Information,THERMAL ZONE 11,SizingPeriod: PHOENIX SKY HARBOR INTL AP ANN HTG WIND 99% CONDNS WS=>MCDB,1.5942368855E-003,1.6254851791E-003,Pass,Pass,2.2653706009E-003,2.9088965931E-003,Pass,Pass
 Warmup Convergence Information,THERMAL ZONE 2,SizingPeriod: PHOENIX SKY HARBOR INTL AP ANN HTG WIND 99% CONDNS WS=>MCDB,3.3314222698E-003,2.1772400808E-005,Pass,Pass,9.5127144644E-003,6.0675400445E-005,Pass,Pass
 Warmup Convergence Information,THERMAL ZONE 8,SizingPeriod: PHOENIX SKY HARBOR INTL AP ANN HTG WIND 99% CONDNS WS=>MCDB,2.4855152385E-005,1.8916763416E-005,Pass,Pass,5.6319219872E-005,3.9952626529E-005,Pass,Pass
 Warmup Convergence Information,THERMAL ZONE 12,SizingPeriod: PHOENIX SKY HARBOR INTL AP ANN HTG WIND 99% CONDNS WS=>MCDB,2.2755867811E-005,1.6785472592E-005,Pass,Pass,3.5984558066E-005,2.5135604181E-005,Pass,Pass
Environment,PHOENIX SKY HARBOR INTL AP ANN CLG 1% CONDNS DB=>MWB,SizingPeriod:DesignDay,07/21,07/21,SummerDesignDay,1,N/A,N/A,N/A,N/A,N/A,N/A
Environment:Daylight Saving,No,SizingPeriod:DesignDay
Environment:Design Day Data,42.30,12.00,DefaultMultipliers,97342,260,4.1,0.00,No ,No 
Environment:Design_Day_Misc,202,1084.4,0.2082,0.1365,1.0,-6.23,20.6,ASHRAETau
Environment:WarmupDays,  6
 Warmup Convergence Information,THERMAL ZONE 4,SizingPeriod: PHOENIX SKY HARBOR INTL AP ANN CLG 1% CONDNS DB=>MWB,8.3290367654E-002,9.0033957486E-002,Pass,Pass,2.6375516882E-002,3.2793023801E-002,Pass,Pass
 Warmup Convergence Information,THERMAL ZONE 3,SizingPeriod: PHOENIX SKY HARBOR INTL AP ANN CLG 1% CONDNS DB=>MWB,8.3713777486E-002,0.1676066926,Pass,Pass,0.1564389191,0.3188776249,Pass,Pass
[...]
 Warmup Convergence Information,THERMAL ZONE 12,SizingPeriod: PHOENIX SKY HARBOR INTL AP ANN CLG .4% CONDNS ENTH=>MDB,3.4486526653E-002,7.0408774732E-002,Pass,Pass,0.5342420343,3.4817984659,Pass,Pass
Environment,PHOENIX SKY HARBOR INTL AP ANN CLG 1% CONDNS DP=>MDB,SizingPeriod:DesignDay,07/21,07/21,SummerDesignDay,1,N/A,N/A,N/A,N/A,N/A,N/A
Environment:Daylight Saving,No,SizingPeriod:DesignDay
Environment:Design Day Data,29.10,12.00,DefaultMultipliers,97342,260,4.1,0.00,No ,No 
Environment:Design_Day_Misc,202,1084.4,0.2082,0.1365,1.0,-6.23,20.6,ASHRAETau
Environment:WarmupDays,  7
 Warmup Convergence Information,THERMAL ZONE 4,SizingPeriod: PHOENIX SKY HARBOR INTL AP ANN CLG 1% CONDNS DP=>MDB,8.4208458468E-002,0.1482139381,Pass,Pass,0.1101890686,0.1393033043,Pass,Pass
 Warmup Convergence Information,THERMAL ZONE 3,SizingPeriod: PHOENIX SKY HARBOR INTL AP ANN CLG 1% CONDNS DP=>MDB,8.3927236910E-002,0.1659304500,Pass,Pass,0.4320447065,2.1615064654,Pass,Pass
 Warmup Convergence Information,THERMAL ZONE 9,SizingPeriod: PHOENIX SKY HARBOR INTL AP ANN CLG 1% CONDNS DP=>MDB,7.6651962866E-002,0.1191333204,Pass,Pass,0.3380855869,1.8222732173,Pass,Pass
 Warmup Convergence Information,THERMAL ZONE 13,SizingPeriod: PHOENIX SKY HARBOR INTL AP ANN CLG 1% CONDNS DP=>MDB,7.4047097224E-005,6.3078098082E-005,Pass,Pass,0.3863093710,1.9992538103,Pass,Pass
 Warmup Convergence Information,THERMAL ZONE 6,SizingPeriod: PHOENIX SKY HARBOR INTL AP ANN CLG 1% CONDNS DP=>MDB,8.0523324461E-003,6.5370163965E-003,Pass,Pass,1.9874187135E-003,2.2436714748E-003,Pass,Pass
 Warmup Convergence Information,THERMAL ZONE 15,SizingPeriod: PHOENIX SKY HARBOR INTL AP ANN CLG 1% CONDNS DP=>MDB,1.0102275719E-002,1.0389793490E-002,Pass,Pass,1.5661109336E-002,2.6847366005E-002,Pass,Pass
 Warmup Convergence Information,THERMAL ZONE 7,SizingPeriod: PHOENIX SKY HARBOR INTL AP ANN CLG 1% CONDNS DP=>MDB,5.2276175000E-002,5.7863368344E-002,Pass,Pass,0.4782212048,3.1635306301,Pass,Pass
 Warmup Convergence Information,THERMAL ZONE 10,SizingPeriod: PHOENIX SKY HARBOR INTL AP ANN CLG 1% CONDNS DP=>MDB,5.0983009463E-002,6.3153908429E-002,Pass,Pass,0.2082663615,0.7790291332,Pass,Pass
 Warmup Convergence Information,THERMAL ZONE 5,SizingPeriod: PHOENIX SKY HARBOR INTL AP ANN CLG 1% CONDNS DP=>MDB,8.4372648128E-002,0.2069390333,Pass,Pass,0.4775961247,2.4348175837,Pass,Pass
 Warmup Convergence Information,THERMAL ZONE 1,SizingPeriod: PHOENIX SKY HARBOR INTL AP ANN CLG 1% CONDNS DP=>MDB,8.2651673271E-002,0.1008182420,Pass,Pass,0.5399228905,3.5454191333,Pass,Pass
 Warmup Convergence Information,THERMAL ZONE 14,SizingPeriod: PHOENIX SKY HARBOR INTL AP ANN CLG 1% CONDNS DP=>MDB,8.4132332056E-002,0.1510342297,Pass,Pass,0.1801019542,0.3904376454,Pass,Pass
 Warmup Convergence Information,THERMAL ZONE 11,SizingPeriod: PHOENIX SKY HARBOR INTL AP ANN CLG 1% CONDNS DP=>MDB,7.8761829650E-002,9.4408426843E-002,Pass,Pass,0.1742236459,0.4204214954,Pass,Pass
 Warmup Convergence Information,THERMAL ZONE 2,SizingPeriod: PHOENIX SKY HARBOR INTL AP ANN CLG 1% CONDNS DP=>MDB,8.4007035312E-002,0.1335606632,Pass,Pass,0.1761080554,0.4374922514,Pass,Pass
 Warmup Convergence Information,THERMAL ZONE 8,SizingPeriod: PHOENIX SKY HARBOR INTL AP ANN CLG 1% CONDNS DP=>MDB,8.4011320837E-002,0.1277649445,Pass,Pass,0.2719894973,1.5332622179,Pass,Pass
 Warmup Convergence Information,THERMAL ZONE 12,SizingPeriod: PHOENIX SKY HARBOR INTL AP ANN CLG 1% CONDNS DP=>MDB,5.1643495304E-003,1.7347496335E-002,Pass,Pass,0.3047647590,1.3968155179,Pass,Pass
Environment,PHOENIX SKY HARBOR INTL AP ANN CLG .4% CONDNS WB=>MDB,SizingPeriod:DesignDay,07/21,07/21,SummerDesignDay,1,N/A,N/A,N/A,N/A,N/A,N/A
Environment:Daylight Saving,No,SizingPeriod:DesignDay
Environment:Design Day Data,35.80,12.00,DefaultMultipliers,97342,260,4.1,0.00,No ,No 
Environment:Design_Day_Misc,202,1084.4,0.2082,0.1365,1.0,-6.23,20.6,ASHRAETau
Environment:WarmupDays,  6
 Warmup Convergence Information,THERMAL ZONE 4,SizingPeriod: PHOENIX SKY HARBOR INTL AP ANN CLG .4% CONDNS WB=>MDB,8.3688149091E-002,0.1285122592,Pass,Pass,3.9070024370E-002,3.4173649356E-002,Pass,Pass
 Warmup Convergence Information,THERMAL ZONE 3,SizingPeriod: PHOENIX SKY HARBOR INTL AP ANN CLG .4% CONDNS WB=>MDB,8.4000215027E-002,0.1588929544,Pass,Pass,0.1877369869,0.4497074970,Pass,Pass
 Warmup Convergence Information,THERMAL ZONE 9,SizingPeriod: PHOENIX SKY HARBOR INTL AP ANN CLG .4% CONDNS WB=>MDB,8.3705296164E-002,0.1354526170,Pass,Pass,0.3968511070,2.1257975124,Pass,Pass
 Warmup Convergence Information,THERMAL ZONE 13,SizingPeriod: PHOENIX SKY HARBOR INTL AP ANN CLG .4% CONDNS WB=>MDB,9.5424026186E-003,7.0314688153E-003,Pass,Pass,1.0373782506E-002,2.1204887933E-002,Pass,Pass
 Warmup Convergence Information,THERMAL ZONE 6,SizingPeriod: PHOENIX SKY HARBOR INTL AP ANN CLG .4% CONDNS WB=>MDB,4.1161060361E-003,4.7065278608E-003,Pass,Pass,3.9254356090E-003,4.1993502863E-003,Pass,Pass
 Warmup Convergence Information,THERMAL ZONE 15,SizingPeriod: PHOENIX SKY HARBOR INTL AP ANN CLG .4% CONDNS WB=>MDB,1.6436987989E-002,9.8483187099E-003,Pass,Pass,1.3207963670E-003,7.7135863398E-004,Pass,Pass
 Warmup Convergence Information,THERMAL ZONE 7,SizingPeriod: PHOENIX SKY HARBOR INTL AP ANN CLG .4% CONDNS WB=>MDB,8.2381405097E-002,4.9924989265E-002,Pass,Pass,1.4292747989E-002,2.1399947637E-002,Pass,Pass
 Warmup Convergence Information,THERMAL ZONE 10,SizingPeriod: PHOENIX SKY HARBOR INTL AP ANN CLG .4% CONDNS WB=>MDB,8.3353739457E-002,5.8394567313E-002,Pass,Pass,2.2432499716E-002,3.2483908906E-002,Pass,Pass
 Warmup Convergence Information,THERMAL ZONE 5,SizingPeriod: PHOENIX SKY HARBOR INTL AP ANN CLG .4% CONDNS WB=>MDB,8.4230888337E-002,0.2042860245,Pass,Pass,0.5005222374,2.3447853627,Pass,Pass
 Warmup Convergence Information,THERMAL ZONE 1,SizingPeriod: PHOENIX SKY HARBOR INTL AP ANN CLG .4% CONDNS WB=>MDB,8.3617350593E-002,0.1056195552,Pass,Pass,4.1268931919E-002,3.1094260898E-002,Pass,Pass
 Warmup Convergence Information,THERMAL ZONE 14,SizingPeriod: PHOENIX SKY HARBOR INTL AP ANN CLG .4% CONDNS WB=>MDB,8.3695052395E-002,0.1350343940,Pass,Pass,4.7156726409E-002,3.6116449005E-002,Pass,Pass
 Warmup Convergence Information,THERMAL ZONE 11,SizingPeriod: PHOENIX SKY HARBOR INTL AP ANN CLG .4% CONDNS WB=>MDB,8.3460573236E-002,9.9845846128E-002,Pass,Pass,2.9392477411E-002,2.5842711573E-002,Pass,Pass
 Warmup Convergence Information,THERMAL ZONE 2,SizingPeriod: PHOENIX SKY HARBOR INTL AP ANN CLG .4% CONDNS WB=>MDB,8.3745302573E-002,0.1426182529,Pass,Pass,4.9632662178E-002,4.8766527898E-002,Pass,Pass
 Warmup Convergence Information,THERMAL ZONE 8,SizingPeriod: PHOENIX SKY HARBOR INTL AP ANN CLG .4% CONDNS WB=>MDB,8.3602804375E-002,0.1365433546,Pass,Pass,3.8161061687E-002,3.8674617200E-002,Pass,Pass
 Warmup Convergence Information,THERMAL ZONE 12,SizingPeriod: PHOENIX SKY HARBOR INTL AP ANN CLG .4% CONDNS WB=>MDB,3.4900663636E-002,7.0909221037E-002,Pass,Pass,0.4604645252,2.4273045933,Pass,Pass
Environment,PHOENIX SKY HARBOR INTL AP ANN CLG 2% CONDNS WB=>MDB,SizingPeriod:DesignDay,07/21,07/21,SummerDesignDay,1,N/A,N/A,N/A,N/A,N/A,N/A
Environment:Daylight Saving,No,SizingPeriod:DesignDay
Environment:Design Day Data,35.10,12.00,DefaultMultipliers,97342,260,4.1,0.00,No ,No 
Environment:Design_Day_Misc,202,1084.4,0.2082,0.1365,1.0,-6.23,20.6,ASHRAETau
Environment:WarmupDays,  6
 Warmup Convergence Information,THERMAL ZONE 4,SizingPeriod: PHOENIX SKY HARBOR INTL AP ANN CLG 2% CONDNS WB=>MDB,8.3744365288E-002,0.1267960402,Pass,Pass,4.1152818510E-002,3.2889450469E-002,Pass,Pass
 Warmup Convergence Information,THERMAL ZONE 3,SizingPeriod: PHOENIX SKY HARBOR INTL AP ANN CLG 2% CONDNS WB=>MDB,8.3949945003E-002,0.1571337793,Pass,Pass,0.2517603643,0.8189282638,Pass,Pass
 Warmup Convergence Information,THERMAL ZONE 9,SizingPeriod: PHOENIX SKY HARBOR INTL AP ANN CLG 2% CONDNS WB=>MDB,8.3759443966E-002,0.1346693213,Pass,Pass,0.2907592045,1.0313121766,Pass,Pass
 Warmup Convergence Information,THERMAL ZONE 13,SizingPeriod: PHOENIX SKY HARBOR INTL AP ANN CLG 2% CONDNS WB=>MDB,7.5849015600E-003,7.3400926116E-003,Pass,Pass,1.7586981336E-002,2.3299675916E-002,Pass,Pass
 Warmup Convergence Information,THERMAL ZONE 6,SizingPeriod: PHOENIX SKY HARBOR INTL AP ANN CLG 2% CONDNS WB=>MDB,4.7246880566E-003,5.1838370269E-003,Pass,Pass,3.7894422143E-003,4.3113855711E-003,Pass,Pass
 Warmup Convergence Information,THERMAL ZONE 15,SizingPeriod: PHOENIX SKY HARBOR INTL AP ANN CLG 2% CONDNS WB=>MDB,1.6441094668E-002,1.0076659531E-002,Pass,Pass,1.3167879339E-003,8.2294765653E-004,Pass,Pass
 Warmup Convergence Information,THERMAL ZONE 7,SizingPeriod: PHOENIX SKY HARBOR INTL AP ANN CLG 2% CONDNS WB=>MDB,8.3308716930E-002,5.0224068321E-002,Pass,Pass,1.6274635180E-002,2.1218986864E-002,Pass,Pass
 Warmup Convergence Information,THERMAL ZONE 10,SizingPeriod: PHOENIX SKY HARBOR INTL AP ANN CLG 2% CONDNS WB=>MDB,8.3389530113E-002,6.0132774427E-002,Pass,Pass,2.4748183748E-002,3.8532779956E-002,Pass,Pass
 Warmup Convergence Information,THERMAL ZONE 5,SizingPeriod: PHOENIX SKY HARBOR INTL AP ANN CLG 2% CONDNS WB=>MDB,8.4140502410E-002,0.2022166474,Pass,Pass,0.3602855523,1.5422452446,Pass,Pass
 Warmup Convergence Information,THERMAL ZONE 1,SizingPeriod: PHOENIX SKY HARBOR INTL AP ANN CLG 2% CONDNS WB=>MDB,8.3568353238E-002,0.1069647345,Pass,Pass,4.5389772684E-002,3.4739976757E-002,Pass,Pass
 Warmup Convergence Information,THERMAL ZONE 14,SizingPeriod: PHOENIX SKY HARBOR INTL AP ANN CLG 2% CONDNS WB=>MDB,8.3750213977E-002,0.1333085817,Pass,Pass,4.9814429366E-002,3.5344949876E-002,Pass,Pass
 Warmup Convergence Information,THERMAL ZONE 11,SizingPeriod: PHOENIX SKY HARBOR INTL AP ANN CLG 2% CONDNS WB=>MDB,8.3493876134E-002,0.1006077990,Pass,Pass,3.1754527824E-002,2.3904877347E-002,Pass,Pass
 Warmup Convergence Information,THERMAL ZONE 2,SizingPeriod: PHOENIX SKY HARBOR INTL AP ANN CLG 2% CONDNS WB=>MDB,8.3728187086E-002,0.1378248781,Pass,Pass,5.3520067366E-002,5.2610578460E-002,Pass,Pass
 Warmup Convergence Information,THERMAL ZONE 8,SizingPeriod: PHOENIX SKY HARBOR INTL AP ANN CLG 2% CONDNS WB=>MDB,8.3639014389E-002,0.1330949958,Pass,Pass,4.0268943364E-002,4.1331174726E-002,Pass,Pass
 Warmup Convergence Information,THERMAL ZONE 12,SizingPeriod: PHOENIX SKY HARBOR INTL AP ANN CLG 2% CONDNS WB=>MDB,3.1478736687E-002,6.6223552700E-002,Pass,Pass,0.2504529059,0.7909484506,Pass,Pass
Environment,PHOENIX SKY HARBOR INTL AP ANN CLG 1% CONDNS WB=>MDB,SizingPeriod:DesignDay,07/21,07/21,SummerDesignDay,1,N/A,N/A,N/A,N/A,N/A,N/A
Environment:Daylight Saving,No,SizingPeriod:DesignDay
Environment:Design Day Data,35.40,12.00,DefaultMultipliers,97342,260,4.1,0.00,No ,No 
Environment:Design_Day_Misc,202,1084.4,0.2082,0.1365,1.0,-6.23,20.6,ASHRAETau
Environment:WarmupDays,  6
 Warmup Convergence Information,THERMAL ZONE 4,SizingPeriod: PHOENIX SKY HARBOR INTL AP ANN CLG 1% CONDNS WB=>MDB,8.3580382098E-002,0.1253866661,Pass,Pass,4.0313432745E-002,3.4216685575E-002,Pass,Pass
 Warmup Convergence Information,THERMAL ZONE 3,SizingPeriod: PHOENIX SKY HARBOR INTL AP ANN CLG 1% CONDNS WB=>MDB,8.3966240662E-002,0.1569930097,Pass,Pass,0.2046549614,0.5487390092,Pass,Pass
 Warmup Convergence Information,THERMAL ZONE 9,SizingPeriod: PHOENIX SKY HARBOR INTL AP ANN CLG 1% CONDNS WB=>MDB,8.3856708789E-002,0.1344199402,Pass,Pass,2.7647975215,25.2030853277,Pass,Pass
 Warmup Convergence Information,THERMAL ZONE 13,SizingPeriod: PHOENIX SKY HARBOR INTL AP ANN CLG 1% CONDNS WB=>MDB,8.4209817724E-003,7.2515438498E-003,Pass,Pass,1.3897716936E-002,2.0451132867E-002,Pass,Pass
 Warmup Convergence Information,THERMAL ZONE 6,SizingPeriod: PHOENIX SKY HARBOR INTL AP ANN CLG 1% CONDNS WB=>MDB,4.4914350601E-003,4.9803001350E-003,Pass,Pass,4.0317350600E-003,4.4094688085E-003,Pass,Pass
 Warmup Convergence Information,THERMAL ZONE 15,SizingPeriod: PHOENIX SKY HARBOR INTL AP ANN CLG 1% CONDNS WB=>MDB,1.6436833852E-002,1.0061076698E-002,Pass,Pass,1.3159192818E-003,8.2182512600E-004,Pass,Pass
 Warmup Convergence Information,THERMAL ZONE 7,SizingPeriod: PHOENIX SKY HARBOR INTL AP ANN CLG 1% CONDNS WB=>MDB,8.3297310709E-002,5.0674642382E-002,Pass,Pass,1.5302852655E-002,2.1204938234E-002,Pass,Pass
 Warmup Convergence Information,THERMAL ZONE 10,SizingPeriod: PHOENIX SKY HARBOR INTL AP ANN CLG 1% CONDNS WB=>MDB,8.3352938260E-002,5.9840643053E-002,Pass,Pass,2.3614216276E-002,3.6148896626E-002,Pass,Pass
 Warmup Convergence Information,THERMAL ZONE 5,SizingPeriod: PHOENIX SKY HARBOR INTL AP ANN CLG 1% CONDNS WB=>MDB,8.4264632902E-002,0.2021250196,Pass,Pass,0.2456975734,0.5378574965,Pass,Pass
 Warmup Convergence Information,THERMAL ZONE 1,SizingPeriod: PHOENIX SKY HARBOR INTL AP ANN CLG 1% CONDNS WB=>MDB,8.3514034157E-002,0.1059734554,Pass,Pass,4.3338211063E-002,3.2471247310E-002,Pass,Pass
 Warmup Convergence Information,THERMAL ZONE 14,SizingPeriod: PHOENIX SKY HARBOR INTL AP ANN CLG 1% CONDNS WB=>MDB,8.3851250941E-002,0.1315420953,Pass,Pass,4.8516387163E-002,3.5680224843E-002,Pass,Pass
 Warmup Convergence Information,THERMAL ZONE 11,SizingPeriod: PHOENIX SKY HARBOR INTL AP ANN CLG 1% CONDNS WB=>MDB,8.3486543403E-002,9.9530132620E-002,Pass,Pass,3.0756673366E-002,2.4809436671E-002,Pass,Pass
 Warmup Convergence Information,THERMAL ZONE 2,SizingPeriod: PHOENIX SKY HARBOR INTL AP ANN CLG 1% CONDNS WB=>MDB,8.3799341030E-002,0.1380335913,Pass,Pass,5.1560276105E-002,5.0946191009E-002,Pass,Pass
 Warmup Convergence Information,THERMAL ZONE 8,SizingPeriod: PHOENIX SKY HARBOR INTL AP ANN CLG 1% CONDNS WB=>MDB,8.3652110018E-002,0.1331299232,Pass,Pass,3.9259486149E-002,3.9715912498E-002,Pass,Pass
 Warmup Convergence Information,THERMAL ZONE 12,SizingPeriod: PHOENIX SKY HARBOR INTL AP ANN CLG 1% CONDNS WB=>MDB,3.2965097555E-002,6.8004460319E-002,Pass,Pass,1.3702977705,11.5620548259,Pass,Pass
Environment,PHOENIX SKY HARBOR INTL AP ANN CLG 2% CONDNS DP=>MDB,SizingPeriod:DesignDay,07/21,07/21,SummerDesignDay,1,N/A,N/A,N/A,N/A,N/A,N/A
Environment:Daylight Saving,No,SizingPeriod:DesignDay
Environment:Design Day Data,30.20,12.00,DefaultMultipliers,97342,260,4.1,0.00,No ,No 
Environment:Design_Day_Misc,202,1084.4,0.2082,0.1365,1.0,-6.23,20.6,ASHRAETau
Environment:WarmupDays,  6
 Warmup Convergence Information,THERMAL ZONE 4,SizingPeriod: PHOENIX SKY HARBOR INTL AP ANN CLG 2% CONDNS DP=>MDB,8.4107416518E-002,0.1465522213,Pass,Pass,7.1036425343E-002,4.7747737396E-002,Pass,Pass
 Warmup Convergence Information,THERMAL ZONE 3,SizingPeriod: PHOENIX SKY HARBOR INTL AP ANN CLG 2% CONDNS DP=>MDB,8.4059488215E-002,0.1654509975,Pass,Pass,0.2508870622,0.9538430822,Pass,Pass
 Warmup Convergence Information,THERMAL ZONE 9,SizingPeriod: PHOENIX SKY HARBOR INTL AP ANN CLG 2% CONDNS DP=>MDB,8.0927726100E-002,0.1213790454,Pass,Pass,0.1887436215,0.5140525424,Pass,Pass
 Warmup Convergence Information,THERMAL ZONE 13,SizingPeriod: PHOENIX SKY HARBOR INTL AP ANN CLG 2% CONDNS DP=>MDB,6.3853858596E-005,5.6315100590E-005,Pass,Pass,0.3373133532,1.5565743340,Pass,Pass
 Warmup Convergence Information,THERMAL ZONE 6,SizingPeriod: PHOENIX SKY HARBOR INTL AP ANN CLG 2% CONDNS DP=>MDB,7.5643141674E-003,6.4596549985E-003,Pass,Pass,2.1785199192E-003,2.6188028412E-003,Pass,Pass
 Warmup Convergence Information,THERMAL ZONE 15,SizingPeriod: PHOENIX SKY HARBOR INTL AP ANN CLG 2% CONDNS DP=>MDB,1.3365072501E-002,1.1054816241E-002,Pass,Pass,6.9705347108E-003,1.7410356337E-002,Pass,Pass
 Warmup Convergence Information,THERMAL ZONE 7,SizingPeriod: PHOENIX SKY HARBOR INTL AP ANN CLG 2% CONDNS DP=>MDB,5.8968905838E-002,5.7119884370E-002,Pass,Pass,0.1324840718,0.3865736146,Pass,Pass
 Warmup Convergence Information,THERMAL ZONE 10,SizingPeriod: PHOENIX SKY HARBOR INTL AP ANN CLG 2% CONDNS DP=>MDB,5.6718809978E-002,6.2840858679E-002,Pass,Pass,0.1968030746,0.6587405195,Pass,Pass
 Warmup Convergence Information,THERMAL ZONE 5,SizingPeriod: PHOENIX SKY HARBOR INTL AP ANN CLG 2% CONDNS DP=>MDB,8.4320094072E-002,0.2068727208,Pass,Pass,0.6167501229,3.6565049920,Pass,Pass
 Warmup Convergence Information,THERMAL ZONE 1,SizingPeriod: PHOENIX SKY HARBOR INTL AP ANN CLG 2% CONDNS DP=>MDB,8.3863848145E-002,0.1028435136,Pass,Pass,0.2445366634,0.8098244257,Pass,Pass
 Warmup Convergence Information,THERMAL ZONE 14,SizingPeriod: PHOENIX SKY HARBOR INTL AP ANN CLG 2% CONDNS DP=>MDB,8.4030311052E-002,0.1487799458,Pass,Pass,0.1496363176,0.3417165631,Pass,Pass
 Warmup Convergence Information,THERMAL ZONE 11,SizingPeriod: PHOENIX SKY HARBOR INTL AP ANN CLG 2% CONDNS DP=>MDB,8.3765672477E-002,9.5614210015E-002,Pass,Pass,0.1431167159,0.3277842336,Pass,Pass
 Warmup Convergence Information,THERMAL ZONE 2,SizingPeriod: PHOENIX SKY HARBOR INTL AP ANN CLG 2% CONDNS DP=>MDB,8.4008792416E-002,0.1345073344,Pass,Pass,0.2647377967,1.2257361650,Pass,Pass
 Warmup Convergence Information,THERMAL ZONE 8,SizingPeriod: PHOENIX SKY HARBOR INTL AP ANN CLG 2% CONDNS DP=>MDB,8.3972420243E-002,0.1286408824,Pass,Pass,0.1564467728,0.5084402270,Pass,Pass
 Warmup Convergence Information,THERMAL ZONE 12,SizingPeriod: PHOENIX SKY HARBOR INTL AP ANN CLG 2% CONDNS DP=>MDB,1.1321834314E-002,2.6164284135E-002,Pass,Pass,0.2261888237,0.6019736560,Pass,Pass
Environment,RUN PERIOD 1,WeatherFileRunPeriod,01/01,12/31,Thursday,365,Use RunPeriod Specified Day,Yes,Yes,No ,Yes,Yes
Environment:Daylight Saving,No,
Environment:WarmupDays,  6
 Warmup Convergence Information,THERMAL ZONE 4,RunPeriod: RUN PERIOD 1,1.3472654963E-002,5.0246143964E-002,Pass,Pass,0.3825037530,2.1709264497,Pass,Pass
 Warmup Convergence Information,THERMAL ZONE 3,RunPeriod: RUN PERIOD 1,3.6336758755E-002,0.1028616047,Pass,Pass,0.1735460388,0.4132086354,Pass,Pass
 Warmup Convergence Information,THERMAL ZONE 9,RunPeriod: RUN PERIOD 1,0.1204456251,0.2213883356,Pass,Pass,0.2258656522,0.7223087766,Pass,Pass
 Warmup Convergence Information,THERMAL ZONE 13,RunPeriod: RUN PERIOD 1,1.6936687328E-004,1.5232964084E-004,Pass,Pass,1.9593821843E-002,1.2352116720E-002,Pass,Pass
 Warmup Convergence Information,THERMAL ZONE 6,RunPeriod: RUN PERIOD 1,1.0447732524E-002,8.2500687706E-003,Pass,Pass,1.1260719410E-003,8.1153259003E-004,Pass,Pass
 Warmup Convergence Information,THERMAL ZONE 15,RunPeriod: RUN PERIOD 1,1.8899200742E-004,1.8301371266E-004,Pass,Pass,3.1150631406E-002,2.0013452194E-002,Pass,Pass
 Warmup Convergence Information,THERMAL ZONE 7,RunPeriod: RUN PERIOD 1,1.1762960504E-003,9.6127748971E-004,Pass,Pass,4.5287407368E-002,4.0766628643E-002,Pass,Pass
 Warmup Convergence Information,THERMAL ZONE 10,RunPeriod: RUN PERIOD 1,1.2760923853E-003,1.2449951487E-003,Pass,Pass,4.9339489994E-002,4.7145019981E-002,Pass,Pass
 Warmup Convergence Information,THERMAL ZONE 5,RunPeriod: RUN PERIOD 1,3.8519967638E-002,0.1038485761,Pass,Pass,0.2004815770,0.9014337405,Pass,Pass
 Warmup Convergence Information,THERMAL ZONE 1,RunPeriod: RUN PERIOD 1,8.6587024088E-002,0.1491668358,Pass,Pass,0.1968239814,0.4601234220,Pass,Pass
 Warmup Convergence Information,THERMAL ZONE 14,RunPeriod: RUN PERIOD 1,2.3847995125E-002,7.7593990648E-002,Pass,Pass,0.2184875290,0.6248705965,Pass,Pass
 Warmup Convergence Information,THERMAL ZONE 11,RunPeriod: RUN PERIOD 1,8.4176363964E-002,0.1512001723,Pass,Pass,0.2066754989,0.5274897940,Pass,Pass
 Warmup Convergence Information,THERMAL ZONE 2,RunPeriod: RUN PERIOD 1,2.7605491489E-002,6.6940022621E-002,Pass,Pass,0.9328060180,6.7655161211,Pass,Pass
 Warmup Convergence Information,THERMAL ZONE 8,RunPeriod: RUN PERIOD 1,1.6317370325E-002,4.8897206651E-002,Pass,Pass,0.2155161656,0.6220250847,Pass,Pass
 Warmup Convergence Information,THERMAL ZONE 12,RunPeriod: RUN PERIOD 1,8.9585440553E-003,1.6382572842E-002,Pass,Pass,2.6807256821E-002,2.8514094122E-002,Pass,Pass
! <Program Control Information:Threads/Parallel Sims>, Threading Supported,Maximum Number of Threads, Env Set Threads (OMP_NUM_THREADS), EP Env Set Threads (EP_OMP_NUM_THREADS), IDF Set Threads, Number of Threads Used (Interior Radiant Exchange), Number Nominal Surfaces, Number Parallel Sims
Program Control:Threads/Parallel Sims, Yes,1, Not Set, Not Set, 1, 1, 102, N/A
End of Data
