Program Version,EnergyPlus-Linux-OMP-32 7.2.0.006, YMD=2013.06.22 15:26
! <Version>, Version ID
 Version, 7.2
! <Timesteps per Hour>, #TimeSteps, Minutes per TimeStep {minutes}
 Timesteps per Hour,  4, 15
! <System Convergence Limits>, Minimum System TimeStep {minutes}, Max HVAC Iterations,  Minimum Plant Iterations, Maximum Plant Iterations
 System Convergence Limits, 1, 20, 2, 8
! <Simulation Control>, Do Zone Sizing, Do System Sizing, Do Plant Sizing, Do Design Days, Do Weather Simulation
 Simulation Control, Yes, Yes, Yes, Yes, Yes
! <Output Reporting Tolerances>, Tolerance for Time Heating Setpoint Not Met, Tolerance for Time Cooling Setpoint Not Met
 Output Reporting Tolerances, 0.200, 0.200, 
! <Site:GroundTemperature:BuildingSurface>, Months From Jan to Dec {Deg C}
 Site:GroundTemperature:BuildingSurface,  18.00,  18.00,  18.00,  18.00,  18.00,  18.00,  18.00,  18.00,  18.00,  18.00,  18.00,  18.00
! <Site:GroundTemperature:FCfactorMethod>, Months From Jan to Dec {Deg C}
 Site:GroundTemperature:FCfactorMethod,  10.86,  10.57,  11.08,  11.88,  13.97,  15.58,  16.67,  17.00,  16.44,  15.19,  13.51,  11.96
! <Site:GroundTemperature:Shallow>, Months From Jan to Dec {Deg C}
 Site:GroundTemperature:Shallow,  13.00,  13.00,  13.00,  13.00,  13.00,  13.00,  13.00,  13.00,  13.00,  13.00,  13.00,  13.00
! <Site:GroundTemperature:Deep>, Months From Jan to Dec {Deg C}
 Site:GroundTemperature:Deep,  16.00,  16.00,  16.00,  16.00,  16.00,  16.00,  16.00,  16.00,  16.00,  16.00,  16.00,  16.00
! <Site:GroundReflectance>, Months From Jan to Dec {dimensionless}
 Site:GroundReflectance,  0.20,  0.20,  0.20,  0.20,  0.20,  0.20,  0.20,  0.20,  0.20,  0.20,  0.20,  0.20
! <Site:GroundReflectance:SnowModifier>, Normal, Daylighting {dimensionless}
 Site:GroundReflectance:SnowModifier,   1.000,   1.000
! <Site:GroundReflectance:Snow>, Months From Jan to Dec {dimensionless}
 Site:GroundReflectance:Snow,  0.20,  0.20,  0.20,  0.20,  0.20,  0.20,  0.20,  0.20,  0.20,  0.20,  0.20,  0.20
! <Site:GroundReflectance:Snow:Daylighting>, Months From Jan to Dec {dimensionless}
 Site:GroundReflectance:Snow:Daylighting,  0.20,  0.20,  0.20,  0.20,  0.20,  0.20,  0.20,  0.20,  0.20,  0.20,  0.20,  0.20
! <Environment:Weather Station>,Wind Sensor Height Above Ground {m},Wind Speed Profile Exponent {},Wind Speed Profile Boundary Layer Thickness {m},Air Temperature Sensor Height Above Ground {m},Wind Speed Modifier Coefficient [Internal],Temperature Modifier Coefficient [Internal]
Environment:Weather Station,10.000,0.140,270.000,1.500,1.586,9.750E-003
! <Site:Location>, Location Name, Latitude {N+/S- Deg}, Longitude {E+/W- Deg},  Time Zone Number {GMT+/-}, Elevation {m},  Standard Pressure at Elevation {Pa}, Standard RhoAir at Elevation
Site:Location,San Francisco Intl Ap CA USA TMY3 WMO#=724940,37.62,-122.40,-8.00,2.00,101301,1.2040
! <Building Information>, Building Name,North Axis {deg},Terrain,  Loads Convergence Tolerance Value,Temperature Convergence Tolerance Value,  Solar Distribution,Maximum Number of Warmup Days,Minimum Number of Warmup Days
 Building Information,Building 1,0.000,Suburbs,4.00000E-002,0.40000,FullExterior,25,6
! <Inside Convection Algorithm>, Algorithm {Simple | TARP | CeilingDiffuser | AdaptiveConvectionAlgorithm}
Inside Convection Algorithm,TARP
! <Outside Convection Algorithm>, Algorithm {SimpleCombined | TARP | MoWitt | DOE-2 | AdaptiveConvectionAlgorithm}
Outside Convection Algorithm,DOE-2
! <Sky Radiance Distribution>, Value {Anisotropic}
Sky Radiance Distribution,Anisotropic
! <Zone Air Solution Algorithm>, Value {ThirdOrderBackwardDifference | AnalyticalSolution | EulerMethod}
 Zone Air Solution Algorithm, ThirdOrderBackwardDifference
! <Zone Air Contaminant Balance Simulation>, Simulation {Yes/No}, Carbon Dioxide Concentration
 Zone Air Carbon Dioxide Balance Simulation, No,N/A
! <Zone Air Contaminant Balance Simulation>, Simulation {Yes/No}, Generic Contaminant Concentration
 Zone Air Generic Contaminant Balance Simulation, No,N/A
! <Environment:Site Atmospheric Variation>,Wind Speed Profile Exponent {},Wind Speed Profile Boundary Layer Thickness {m},Air Temperature Gradient Coefficient {K/m}
Environment:Site Atmospheric Variation,0.220,370.000,6.500000E-003
! <SurfaceGeometry>,Starting Corner,Vertex Input Direction,Coordinate System,Daylight Reference Point Coordinate System,Rectangular (Simple) Surface Coordinate System
 Surface Geometry,UpperLeftCorner,Counterclockwise,RelativeCoordinateSystem,RelativeCoordinateSystem,RelativeToZoneOrigin
! <Surface Heat Transfer Algorithm>, Value {CTF - ConductionTransferFunction | EMPD - MoisturePenetrationDepthConductionTransferFunction | CondFD - ConductionFiniteDifference | HAMT - CombinedHeatAndMoistureFiniteElement} - Description,Inside Surface Max Temperature Limit{C}, Surface Convection Coefficient Lower Limit {W/m2-K}, Surface Convection Coefficient Upper Limit {W/m2-K}
Surface Heat Transfer Algorithm, CTF - ConductionTransferFunction,200,0.10,1000.0
! <Shading Summary>, Number of Fixed Detached Shades, Number of Building Detached Shades, Number of Attached Shades
 Shading Summary,0,0,0
! <Zone Summary>, Number of Zones, Number of Zone Surfaces, Number of SubSurfaces
 Zone Summary,25,170,20
! <Zone Information>,Zone Name,North Axis {deg},Origin X-Coordinate {m},Origin Y-Coordinate {m},Origin Z-Coordinate {m},Centroid X-Coordinate {m},Centroid Y-Coordinate {m},Centroid Z-Coordinate {m},Type,Zone Multiplier,Zone List Multiplier,Minimum X {m},Maximum X {m},Minimum Y {m},Maximum Y {m},Minimum Z {m},Maximum Z {m},Ceiling Height {m},Volume {m3},Zone Inside Convection Algorithm {Simple-Detailed-CeilingDiffuser-TrombeWall},Zone Outside Convection Algorithm {Simple-Detailed-Tarp-MoWitt-DOE-2-BLAST}, Floor Area {m2},Exterior Gross Wall Area {m2},Exterior Net Wall Area {m2},Exterior Window Area {m2}, Number of Surfaces, Number of SubSurfaces, Number of Shading SubSurfaces,  Part of Total Building Area
 Zone Information, THERMAL ZONE 18,0.0,0.00,0.00,0.00,14.14,1.38,2.00,1,1,1,0.00,28.28,0.00,3.00,0.00,4.00,4.00,303.37,TARP,DOE-2,75.84,113.12,73.53,39.59,6,1,0,Yes
 Zone Information, THERMAL ZONE 19,0.0,0.00,0.00,4.00,1.38,14.14,6.00,1,1,1,0.00,3.00,0.00,28.28,4.00,8.00,4.00,303.37,TARP,DOE-2,75.84,113.12,73.53,39.59,6,1,0,Yes
 Zone Information, THERMAL ZONE 17,0.0,3.00,25.28,0.00,14.14,26.90,2.00,1,1,1,0.00,28.28,25.28,28.28,0.00,4.00,4.00,303.37,TARP,DOE-2,75.84,113.12,73.53,39.59,6,1,0,Yes
 Zone Information, THERMAL ZONE 14,0.0,3.00,25.28,4.00,14.14,26.90,6.00,1,1,1,0.00,28.28,25.28,28.28,4.00,8.00,4.00,303.37,TARP,DOE-2,75.84,113.12,73.53,39.59,6,1,0,Yes
 Zone Information, THERMAL ZONE 21,0.0,3.00,3.00,0.00,14.14,14.14,2.00,1,1,1,3.00,25.28,3.00,25.28,0.00,4.00,4.00,1985.72,TARP,DOE-2,496.43,0.00,0.00,0.00,6,0,0,Yes
 Zone Information, THERMAL ZONE 8,0.0,3.00,25.28,16.00,14.14,26.90,18.00,1,1,1,0.00,28.28,25.28,28.28,16.00,20.00,4.00,303.37,TARP,DOE-2,75.84,113.12,73.53,39.59,6,1,0,Yes
 Zone Information, THERMAL ZONE 11,0.0,25.28,3.00,12.00,26.90,14.14,14.00,1,1,1,25.28,28.28,0.00,28.28,12.00,16.00,4.00,303.37,TARP,DOE-2,75.84,113.12,73.53,39.59,6,1,0,Yes
 Zone Information, THERMAL ZONE 22,0.0,0.00,0.00,16.00,14.14,1.38,18.00,1,1,1,0.00,28.28,0.00,3.00,16.00,20.00,4.00,303.37,TARP,DOE-2,75.84,113.12,73.53,39.59,6,1,0,Yes
 Zone Information, THERMAL ZONE 1,0.0,3.00,3.00,12.00,14.14,14.14,14.00,1,1,1,3.00,25.28,3.00,25.28,12.00,16.00,4.00,1985.72,TARP,DOE-2,496.43,0.00,0.00,0.00,6,0,0,Yes
 Zone Information, THERMAL ZONE 16,0.0,3.00,3.00,8.00,14.14,14.14,10.00,1,1,1,3.00,25.28,3.00,25.28,8.00,12.00,4.00,1985.72,TARP,DOE-2,496.43,0.00,0.00,0.00,6,0,0,Yes
 Zone Information, THERMAL ZONE 5,0.0,3.00,3.00,4.00,14.14,14.14,6.00,1,1,1,3.00,25.28,3.00,25.28,4.00,8.00,4.00,1985.72,TARP,DOE-2,496.43,0.00,0.00,0.00,6,0,0,Yes
 Zone Information, THERMAL ZONE 7,0.0,0.00,0.00,8.00,1.38,14.14,10.00,1,1,1,0.00,3.00,0.00,28.28,8.00,12.00,4.00,303.37,TARP,DOE-2,75.84,113.12,73.53,39.59,6,1,0,Yes
 Zone Information, THERMAL ZONE 24,0.0,0.00,0.00,8.00,14.14,1.38,10.00,1,1,1,0.00,28.28,0.00,3.00,8.00,12.00,4.00,303.37,TARP,DOE-2,75.84,113.12,73.53,39.59,6,1,0,Yes
 Zone Information, THERMAL ZONE 10,0.0,25.28,3.00,4.00,26.90,14.14,6.00,1,1,1,25.28,28.28,0.00,28.28,4.00,8.00,4.00,303.37,TARP,DOE-2,75.84,113.12,73.53,39.59,6,1,0,Yes
 Zone Information, THERMAL ZONE 3,0.0,25.28,3.00,16.00,26.90,14.14,18.00,1,1,1,25.28,28.28,0.00,28.28,16.00,20.00,4.00,303.37,TARP,DOE-2,75.84,113.12,73.53,39.59,6,1,0,Yes
 Zone Information, THERMAL ZONE 2,0.0,0.00,0.00,0.00,1.38,14.14,2.00,1,1,1,0.00,3.00,0.00,28.28,0.00,4.00,4.00,303.37,TARP,DOE-2,75.84,113.12,73.53,39.59,6,1,0,Yes
 Zone Information, THERMAL ZONE 4,0.0,0.00,0.00,12.00,1.38,14.14,14.00,1,1,1,0.00,3.00,0.00,28.28,12.00,16.00,4.00,303.37,TARP,DOE-2,75.84,113.12,73.53,39.59,6,1,0,Yes
 Zone Information, THERMAL ZONE 9,0.0,3.00,25.28,12.00,14.14,26.90,14.00,1,1,1,0.00,28.28,25.28,28.28,12.00,16.00,4.00,303.37,TARP,DOE-2,75.84,113.12,73.53,39.59,6,1,0,Yes
 Zone Information, THERMAL ZONE 25,0.0,25.28,3.00,0.00,26.90,14.14,2.00,1,1,1,25.28,28.28,0.00,28.28,0.00,4.00,4.00,303.37,TARP,DOE-2,75.84,113.12,73.53,39.59,6,1,0,Yes
 Zone Information, THERMAL ZONE 23,0.0,0.00,0.00,12.00,14.14,1.38,14.00,1,1,1,0.00,28.28,0.00,3.00,12.00,16.00,4.00,303.37,TARP,DOE-2,75.84,113.12,73.53,39.59,6,1,0,Yes
 Zone Information, THERMAL ZONE 15,0.0,0.00,0.00,4.00,14.14,1.38,6.00,1,1,1,0.00,28.28,0.00,3.00,4.00,8.00,4.00,303.37,TARP,DOE-2,75.84,113.12,73.53,39.59,6,1,0,Yes
 Zone Information, THERMAL ZONE 20,0.0,25.28,3.00,8.00,26.90,14.14,10.00,1,1,1,25.28,28.28,0.00,28.28,8.00,12.00,4.00,303.37,TARP,DOE-2,75.84,113.12,73.53,39.59,6,1,0,Yes
 Zone Information, THERMAL ZONE 6,0.0,3.00,3.00,16.00,14.14,14.14,18.00,1,1,1,3.00,25.28,3.00,25.28,16.00,20.00,4.00,1985.72,TARP,DOE-2,496.43,0.00,0.00,0.00,6,0,0,Yes
 Zone Information, THERMAL ZONE 12,0.0,0.00,0.00,16.00,1.38,14.14,18.00,1,1,1,0.00,3.00,0.00,28.28,16.00,20.00,4.00,303.37,TARP,DOE-2,75.84,113.12,73.53,39.59,6,1,0,Yes
 Zone Information, THERMAL ZONE 13,0.0,3.00,25.28,8.00,14.14,26.90,10.00,1,1,1,0.00,28.28,25.28,28.28,8.00,12.00,4.00,303.37,TARP,DOE-2,75.84,113.12,73.53,39.59,6,1,0,Yes
! <Zone Internal Gains/Equipment Information - Nominal>,Zone Name, Floor Area {m2},# Occupants,Area per Occupant {m2/person},Occupant per Area {person/m2},Interior Lighting {W/m2},Electric Load {W/m2},Gas Load {W/m2},Other Load {W/m2},Hot Water Eq {W/m2},Steam Equipment {W/m2},Sum Loads per Area {W/m2},Outdoor Controlled Baseboard Heat
 Zone Internal Gains, THERMAL ZONE 18,75.84,4.1,18.581,5.382E-002,10.764,10.764,0.000,0.000,0.000,0.000,21.528,No
 Zone Internal Gains, THERMAL ZONE 19,75.84,4.1,18.581,5.382E-002,10.764,10.764,0.000,0.000,0.000,0.000,21.528,No
 Zone Internal Gains, THERMAL ZONE 17,75.84,4.1,18.581,5.382E-002,10.764,10.764,0.000,0.000,0.000,0.000,21.528,No
 Zone Internal Gains, THERMAL ZONE 14,75.84,4.1,18.581,5.382E-002,10.764,10.764,0.000,0.000,0.000,0.000,21.528,No
 Zone Internal Gains, THERMAL ZONE 21,496.43,26.7,18.581,5.382E-002,10.764,10.764,0.000,0.000,0.000,0.000,21.528,No
 Zone Internal Gains, THERMAL ZONE 8,75.84,4.1,18.581,5.382E-002,10.764,10.764,0.000,0.000,0.000,0.000,21.528,No
 Zone Internal Gains, THERMAL ZONE 11,75.84,4.1,18.581,5.382E-002,10.764,10.764,0.000,0.000,0.000,0.000,21.528,No
 Zone Internal Gains, THERMAL ZONE 22,75.84,4.1,18.581,5.382E-002,10.764,10.764,0.000,0.000,0.000,0.000,21.528,No
 Zone Internal Gains, THERMAL ZONE 1,496.43,26.7,18.581,5.382E-002,10.764,10.764,0.000,0.000,0.000,0.000,21.528,No
 Zone Internal Gains, THERMAL ZONE 16,496.43,26.7,18.581,5.382E-002,10.764,10.764,0.000,0.000,0.000,0.000,21.528,No
 Zone Internal Gains, THERMAL ZONE 5,496.43,26.7,18.581,5.382E-002,10.764,10.764,0.000,0.000,0.000,0.000,21.528,No
 Zone Internal Gains, THERMAL ZONE 7,75.84,4.1,18.581,5.382E-002,10.764,10.764,0.000,0.000,0.000,0.000,21.528,No
 Zone Internal Gains, THERMAL ZONE 24,75.84,4.1,18.581,5.382E-002,10.764,10.764,0.000,0.000,0.000,0.000,21.528,No
 Zone Internal Gains, THERMAL ZONE 10,75.84,4.1,18.581,5.382E-002,10.764,10.764,0.000,0.000,0.000,0.000,21.528,No
 Zone Internal Gains, THERMAL ZONE 3,75.84,4.1,18.581,5.382E-002,10.764,10.764,0.000,0.000,0.000,0.000,21.528,No
 Zone Internal Gains, THERMAL ZONE 2,75.84,4.1,18.581,5.382E-002,10.764,10.764,0.000,0.000,0.000,0.000,21.528,No
 Zone Internal Gains, THERMAL ZONE 4,75.84,4.1,18.581,5.382E-002,10.764,10.764,0.000,0.000,0.000,0.000,21.528,No
 Zone Internal Gains, THERMAL ZONE 9,75.84,4.1,18.581,5.382E-002,10.764,10.764,0.000,0.000,0.000,0.000,21.528,No
 Zone Internal Gains, THERMAL ZONE 25,75.84,4.1,18.581,5.382E-002,10.764,10.764,0.000,0.000,0.000,0.000,21.528,No
 Zone Internal Gains, THERMAL ZONE 23,75.84,4.1,18.581,5.382E-002,10.764,10.764,0.000,0.000,0.000,0.000,21.528,No
 Zone Internal Gains, THERMAL ZONE 15,75.84,4.1,18.581,5.382E-002,10.764,10.764,0.000,0.000,0.000,0.000,21.528,No
 Zone Internal Gains, THERMAL ZONE 20,75.84,4.1,18.581,5.382E-002,10.764,10.764,0.000,0.000,0.000,0.000,21.528,No
 Zone Internal Gains, THERMAL ZONE 6,496.43,26.7,18.581,5.382E-002,10.764,10.764,0.000,0.000,0.000,0.000,21.528,No
 Zone Internal Gains, THERMAL ZONE 12,75.84,4.1,18.581,5.382E-002,10.764,10.764,0.000,0.000,0.000,0.000,21.528,No
 Zone Internal Gains, THERMAL ZONE 13,75.84,4.1,18.581,5.382E-002,10.764,10.764,0.000,0.000,0.000,0.000,21.528,No
! <People Internal Gains - Nominal>,Name,Schedule Name,Zone Name,Zone Floor Area {m2},# Zone Occupants,Number of People {},People/Floor Area {person/m2},Floor Area per person {m2/person},Fraction Radiant,Fraction Convected,Sensible Fraction Calculation,Activity level,ASHRAE 55 Warnings,Carbon Dioxide Generation Rate 
 People Internal Gains, THERMAL ZONE 1 ASHRAE_90.1-2004 CLIMATEZONE 1-8 MEDIUMOFFICE WHOLEBUILDING PEOPLE,MEDIUM OFFICE_BLDG_OCC,THERMAL ZONE 1,496.43,26.7,26.7,5.382E-002,18.581,0.300,0.700,AutoCalculate,MEDIUM OFFICE_ACTIVITY,No,3.8200E-008
 People Internal Gains, THERMAL ZONE 10 ASHRAE_90.1-2004 CLIMATEZONE 1-8 MEDIUMOFFICE WHOLEBUILDING PEOPLE,MEDIUM OFFICE_BLDG_OCC,THERMAL ZONE 10,75.84,4.1,4.1,5.382E-002,18.581,0.300,0.700,AutoCalculate,MEDIUM OFFICE_ACTIVITY,No,3.8200E-008
 People Internal Gains, THERMAL ZONE 11 ASHRAE_90.1-2004 CLIMATEZONE 1-8 MEDIUMOFFICE WHOLEBUILDING PEOPLE,MEDIUM OFFICE_BLDG_OCC,THERMAL ZONE 11,75.84,4.1,4.1,5.382E-002,18.581,0.300,0.700,AutoCalculate,MEDIUM OFFICE_ACTIVITY,No,3.8200E-008
 People Internal Gains, THERMAL ZONE 12 ASHRAE_90.1-2004 CLIMATEZONE 1-8 MEDIUMOFFICE WHOLEBUILDING PEOPLE,MEDIUM OFFICE_BLDG_OCC,THERMAL ZONE 12,75.84,4.1,4.1,5.382E-002,18.581,0.300,0.700,AutoCalculate,MEDIUM OFFICE_ACTIVITY,No,3.8200E-008
 People Internal Gains, THERMAL ZONE 13 ASHRAE_90.1-2004 CLIMATEZONE 1-8 MEDIUMOFFICE WHOLEBUILDING PEOPLE,MEDIUM OFFICE_BLDG_OCC,THERMAL ZONE 13,75.84,4.1,4.1,5.382E-002,18.581,0.300,0.700,AutoCalculate,MEDIUM OFFICE_ACTIVITY,No,3.8200E-008
 People Internal Gains, THERMAL ZONE 14 ASHRAE_90.1-2004 CLIMATEZONE 1-8 MEDIUMOFFICE WHOLEBUILDING PEOPLE,MEDIUM OFFICE_BLDG_OCC,THERMAL ZONE 14,75.84,4.1,4.1,5.382E-002,18.581,0.300,0.700,AutoCalculate,MEDIUM OFFICE_ACTIVITY,No,3.8200E-008
 People Internal Gains, THERMAL ZONE 15 ASHRAE_90.1-2004 CLIMATEZONE 1-8 MEDIUMOFFICE WHOLEBUILDING PEOPLE,MEDIUM OFFICE_BLDG_OCC,THERMAL ZONE 15,75.84,4.1,4.1,5.382E-002,18.581,0.300,0.700,AutoCalculate,MEDIUM OFFICE_ACTIVITY,No,3.8200E-008
 People Internal Gains, THERMAL ZONE 16 ASHRAE_90.1-2004 CLIMATEZONE 1-8 MEDIUMOFFICE WHOLEBUILDING PEOPLE,MEDIUM OFFICE_BLDG_OCC,THERMAL ZONE 16,496.43,26.7,26.7,5.382E-002,18.581,0.300,0.700,AutoCalculate,MEDIUM OFFICE_ACTIVITY,No,3.8200E-008
 People Internal Gains, THERMAL ZONE 17 ASHRAE_90.1-2004 CLIMATEZONE 1-8 MEDIUMOFFICE WHOLEBUILDING PEOPLE,MEDIUM OFFICE_BLDG_OCC,THERMAL ZONE 17,75.84,4.1,4.1,5.382E-002,18.581,0.300,0.700,AutoCalculate,MEDIUM OFFICE_ACTIVITY,No,3.8200E-008
 People Internal Gains, THERMAL ZONE 18 ASHRAE_90.1-2004 CLIMATEZONE 1-8 MEDIUMOFFICE WHOLEBUILDING PEOPLE,MEDIUM OFFICE_BLDG_OCC,THERMAL ZONE 18,75.84,4.1,4.1,5.382E-002,18.581,0.300,0.700,AutoCalculate,MEDIUM OFFICE_ACTIVITY,No,3.8200E-008
 People Internal Gains, THERMAL ZONE 19 ASHRAE_90.1-2004 CLIMATEZONE 1-8 MEDIUMOFFICE WHOLEBUILDING PEOPLE,MEDIUM OFFICE_BLDG_OCC,THERMAL ZONE 19,75.84,4.1,4.1,5.382E-002,18.581,0.300,0.700,AutoCalculate,MEDIUM OFFICE_ACTIVITY,No,3.8200E-008
 People Internal Gains, THERMAL ZONE 2 ASHRAE_90.1-2004 CLIMATEZONE 1-8 MEDIUMOFFICE WHOLEBUILDING PEOPLE,MEDIUM OFFICE_BLDG_OCC,THERMAL ZONE 2,75.84,4.1,4.1,5.382E-002,18.581,0.300,0.700,AutoCalculate,MEDIUM OFFICE_ACTIVITY,No,3.8200E-008
 People Internal Gains, THERMAL ZONE 20 ASHRAE_90.1-2004 CLIMATEZONE 1-8 MEDIUMOFFICE WHOLEBUILDING PEOPLE,MEDIUM OFFICE_BLDG_OCC,THERMAL ZONE 20,75.84,4.1,4.1,5.382E-002,18.581,0.300,0.700,AutoCalculate,MEDIUM OFFICE_ACTIVITY,No,3.8200E-008
 People Internal Gains, THERMAL ZONE 21 ASHRAE_90.1-2004 CLIMATEZONE 1-8 MEDIUMOFFICE WHOLEBUILDING PEOPLE,MEDIUM OFFICE_BLDG_OCC,THERMAL ZONE 21,496.43,26.7,26.7,5.382E-002,18.581,0.300,0.700,AutoCalculate,MEDIUM OFFICE_ACTIVITY,No,3.8200E-008
 People Internal Gains, THERMAL ZONE 22 ASHRAE_90.1-2004 CLIMATEZONE 1-8 MEDIUMOFFICE WHOLEBUILDING PEOPLE,MEDIUM OFFICE_BLDG_OCC,THERMAL ZONE 22,75.84,4.1,4.1,5.382E-002,18.581,0.300,0.700,AutoCalculate,MEDIUM OFFICE_ACTIVITY,No,3.8200E-008
 People Internal Gains, THERMAL ZONE 23 ASHRAE_90.1-2004 CLIMATEZONE 1-8 MEDIUMOFFICE WHOLEBUILDING PEOPLE,MEDIUM OFFICE_BLDG_OCC,THERMAL ZONE 23,75.84,4.1,4.1,5.382E-002,18.581,0.300,0.700,AutoCalculate,MEDIUM OFFICE_ACTIVITY,No,3.8200E-008
 People Internal Gains, THERMAL ZONE 24 ASHRAE_90.1-2004 CLIMATEZONE 1-8 MEDIUMOFFICE WHOLEBUILDING PEOPLE,MEDIUM OFFICE_BLDG_OCC,THERMAL ZONE 24,75.84,4.1,4.1,5.382E-002,18.581,0.300,0.700,AutoCalculate,MEDIUM OFFICE_ACTIVITY,No,3.8200E-008
 People Internal Gains, THERMAL ZONE 25 ASHRAE_90.1-2004 CLIMATEZONE 1-8 MEDIUMOFFICE WHOLEBUILDING PEOPLE,MEDIUM OFFICE_BLDG_OCC,THERMAL ZONE 25,75.84,4.1,4.1,5.382E-002,18.581,0.300,0.700,AutoCalculate,MEDIUM OFFICE_ACTIVITY,No,3.8200E-008
 People Internal Gains, THERMAL ZONE 3 ASHRAE_90.1-2004 CLIMATEZONE 1-8 MEDIUMOFFICE WHOLEBUILDING PEOPLE,MEDIUM OFFICE_BLDG_OCC,THERMAL ZONE 3,75.84,4.1,4.1,5.382E-002,18.581,0.300,0.700,AutoCalculate,MEDIUM OFFICE_ACTIVITY,No,3.8200E-008
 People Internal Gains, THERMAL ZONE 4 ASHRAE_90.1-2004 CLIMATEZONE 1-8 MEDIUMOFFICE WHOLEBUILDING PEOPLE,MEDIUM OFFICE_BLDG_OCC,THERMAL ZONE 4,75.84,4.1,4.1,5.382E-002,18.581,0.300,0.700,AutoCalculate,MEDIUM OFFICE_ACTIVITY,No,3.8200E-008
 People Internal Gains, THERMAL ZONE 5 ASHRAE_90.1-2004 CLIMATEZONE 1-8 MEDIUMOFFICE WHOLEBUILDING PEOPLE,MEDIUM OFFICE_BLDG_OCC,THERMAL ZONE 5,496.43,26.7,26.7,5.382E-002,18.581,0.300,0.700,AutoCalculate,MEDIUM OFFICE_ACTIVITY,No,3.8200E-008
 People Internal Gains, THERMAL ZONE 6 ASHRAE_90.1-2004 CLIMATEZONE 1-8 MEDIUMOFFICE WHOLEBUILDING PEOPLE,MEDIUM OFFICE_BLDG_OCC,THERMAL ZONE 6,496.43,26.7,26.7,5.382E-002,18.581,0.300,0.700,AutoCalculate,MEDIUM OFFICE_ACTIVITY,No,3.8200E-008
 People Internal Gains, THERMAL ZONE 7 ASHRAE_90.1-2004 CLIMATEZONE 1-8 MEDIUMOFFICE WHOLEBUILDING PEOPLE,MEDIUM OFFICE_BLDG_OCC,THERMAL ZONE 7,75.84,4.1,4.1,5.382E-002,18.581,0.300,0.700,AutoCalculate,MEDIUM OFFICE_ACTIVITY,No,3.8200E-008
 People Internal Gains, THERMAL ZONE 8 ASHRAE_90.1-2004 CLIMATEZONE 1-8 MEDIUMOFFICE WHOLEBUILDING PEOPLE,MEDIUM OFFICE_BLDG_OCC,THERMAL ZONE 8,75.84,4.1,4.1,5.382E-002,18.581,0.300,0.700,AutoCalculate,MEDIUM OFFICE_ACTIVITY,No,3.8200E-008
 People Internal Gains, THERMAL ZONE 9 ASHRAE_90.1-2004 CLIMATEZONE 1-8 MEDIUMOFFICE WHOLEBUILDING PEOPLE,MEDIUM OFFICE_BLDG_OCC,THERMAL ZONE 9,75.84,4.1,4.1,5.382E-002,18.581,0.300,0.700,AutoCalculate,MEDIUM OFFICE_ACTIVITY,No,3.8200E-008
! <Lights Internal Gains - Nominal>,Name,Schedule Name,Zone Name,Zone Floor Area {m2},# Zone Occupants,Lighting Level {W},Lights/Floor Area {W/m2},Lights per person {W/person},Fraction Return Air,Fraction Radiant,Fraction Short Wave,Fraction Convected,Fraction Replaceable,EndUse Category
 Lights Internal Gains, THERMAL ZONE 1 ASHRAE_90.1-2004 CLIMATEZONE 1-8 MEDIUMOFFICE WHOLEBUILDING LIGHTS,MEDIUM OFFICE_BLDG_LIGHT,THERMAL ZONE 1,496.43,26.7,5343.541,10.764,200.000,0.000,0.000,0.000,1.000,1.000,General
 Lights Internal Gains, THERMAL ZONE 10 ASHRAE_90.1-2004 CLIMATEZONE 1-8 MEDIUMOFFICE WHOLEBUILDING LIGHTS,MEDIUM OFFICE_BLDG_LIGHT,THERMAL ZONE 10,75.84,4.1,816.359,10.764,200.000,0.000,0.000,0.000,1.000,1.000,General
 Lights Internal Gains, THERMAL ZONE 11 ASHRAE_90.1-2004 CLIMATEZONE 1-8 MEDIUMOFFICE WHOLEBUILDING LIGHTS,MEDIUM OFFICE_BLDG_LIGHT,THERMAL ZONE 11,75.84,4.1,816.359,10.764,200.000,0.000,0.000,0.000,1.000,1.000,General
 Lights Internal Gains, THERMAL ZONE 12 ASHRAE_90.1-2004 CLIMATEZONE 1-8 MEDIUMOFFICE WHOLEBUILDING LIGHTS,MEDIUM OFFICE_BLDG_LIGHT,THERMAL ZONE 12,75.84,4.1,816.359,10.764,200.000,0.000,0.000,0.000,1.000,1.000,General
 Lights Internal Gains, THERMAL ZONE 13 ASHRAE_90.1-2004 CLIMATEZONE 1-8 MEDIUMOFFICE WHOLEBUILDING LIGHTS,MEDIUM OFFICE_BLDG_LIGHT,THERMAL ZONE 13,75.84,4.1,816.359,10.764,200.000,0.000,0.000,0.000,1.000,1.000,General
 Lights Internal Gains, THERMAL ZONE 14 ASHRAE_90.1-2004 CLIMATEZONE 1-8 MEDIUMOFFICE WHOLEBUILDING LIGHTS,MEDIUM OFFICE_BLDG_LIGHT,THERMAL ZONE 14,75.84,4.1,816.359,10.764,200.000,0.000,0.000,0.000,1.000,1.000,General
 Lights Internal Gains, THERMAL ZONE 15 ASHRAE_90.1-2004 CLIMATEZONE 1-8 MEDIUMOFFICE WHOLEBUILDING LIGHTS,MEDIUM OFFICE_BLDG_LIGHT,THERMAL ZONE 15,75.84,4.1,816.359,10.764,200.000,0.000,0.000,0.000,1.000,1.000,General
 Lights Internal Gains, THERMAL ZONE 16 ASHRAE_90.1-2004 CLIMATEZONE 1-8 MEDIUMOFFICE WHOLEBUILDING LIGHTS,MEDIUM OFFICE_BLDG_LIGHT,THERMAL ZONE 16,496.43,26.7,5343.541,10.764,200.000,0.000,0.000,0.000,1.000,1.000,General
 Lights Internal Gains, THERMAL ZONE 17 ASHRAE_90.1-2004 CLIMATEZONE 1-8 MEDIUMOFFICE WHOLEBUILDING LIGHTS,MEDIUM OFFICE_BLDG_LIGHT,THERMAL ZONE 17,75.84,4.1,816.359,10.764,200.000,0.000,0.000,0.000,1.000,1.000,General
 Lights Internal Gains, THERMAL ZONE 18 ASHRAE_90.1-2004 CLIMATEZONE 1-8 MEDIUMOFFICE WHOLEBUILDING LIGHTS,MEDIUM OFFICE_BLDG_LIGHT,THERMAL ZONE 18,75.84,4.1,816.359,10.764,200.000,0.000,0.000,0.000,1.000,1.000,General
 Lights Internal Gains, THERMAL ZONE 19 ASHRAE_90.1-2004 CLIMATEZONE 1-8 MEDIUMOFFICE WHOLEBUILDING LIGHTS,MEDIUM OFFICE_BLDG_LIGHT,THERMAL ZONE 19,75.84,4.1,816.359,10.764,200.000,0.000,0.000,0.000,1.000,1.000,General
 Lights Internal Gains, THERMAL ZONE 2 ASHRAE_90.1-2004 CLIMATEZONE 1-8 MEDIUMOFFICE WHOLEBUILDING LIGHTS,MEDIUM OFFICE_BLDG_LIGHT,THERMAL ZONE 2,75.84,4.1,816.359,10.764,200.000,0.000,0.000,0.000,1.000,1.000,General
 Lights Internal Gains, THERMAL ZONE 20 ASHRAE_90.1-2004 CLIMATEZONE 1-8 MEDIUMOFFICE WHOLEBUILDING LIGHTS,MEDIUM OFFICE_BLDG_LIGHT,THERMAL ZONE 20,75.84,4.1,816.359,10.764,200.000,0.000,0.000,0.000,1.000,1.000,General
 Lights Internal Gains, THERMAL ZONE 21 ASHRAE_90.1-2004 CLIMATEZONE 1-8 MEDIUMOFFICE WHOLEBUILDING LIGHTS,MEDIUM OFFICE_BLDG_LIGHT,THERMAL ZONE 21,496.43,26.7,5343.541,10.764,200.000,0.000,0.000,0.000,1.000,1.000,General
 Lights Internal Gains, THERMAL ZONE 22 ASHRAE_90.1-2004 CLIMATEZONE 1-8 MEDIUMOFFICE WHOLEBUILDING LIGHTS,MEDIUM OFFICE_BLDG_LIGHT,THERMAL ZONE 22,75.84,4.1,816.359,10.764,200.000,0.000,0.000,0.000,1.000,1.000,General
 Lights Internal Gains, THERMAL ZONE 23 ASHRAE_90.1-2004 CLIMATEZONE 1-8 MEDIUMOFFICE WHOLEBUILDING LIGHTS,MEDIUM OFFICE_BLDG_LIGHT,THERMAL ZONE 23,75.84,4.1,816.359,10.764,200.000,0.000,0.000,0.000,1.000,1.000,General
 Lights Internal Gains, THERMAL ZONE 24 ASHRAE_90.1-2004 CLIMATEZONE 1-8 MEDIUMOFFICE WHOLEBUILDING LIGHTS,MEDIUM OFFICE_BLDG_LIGHT,THERMAL ZONE 24,75.84,4.1,816.359,10.764,200.000,0.000,0.000,0.000,1.000,1.000,General
 Lights Internal Gains, THERMAL ZONE 25 ASHRAE_90.1-2004 CLIMATEZONE 1-8 MEDIUMOFFICE WHOLEBUILDING LIGHTS,MEDIUM OFFICE_BLDG_LIGHT,THERMAL ZONE 25,75.84,4.1,816.359,10.764,200.000,0.000,0.000,0.000,1.000,1.000,General
 Lights Internal Gains, THERMAL ZONE 3 ASHRAE_90.1-2004 CLIMATEZONE 1-8 MEDIUMOFFICE WHOLEBUILDING LIGHTS,MEDIUM OFFICE_BLDG_LIGHT,THERMAL ZONE 3,75.84,4.1,816.359,10.764,200.000,0.000,0.000,0.000,1.000,1.000,General
 Lights Internal Gains, THERMAL ZONE 4 ASHRAE_90.1-2004 CLIMATEZONE 1-8 MEDIUMOFFICE WHOLEBUILDING LIGHTS,MEDIUM OFFICE_BLDG_LIGHT,THERMAL ZONE 4,75.84,4.1,816.359,10.764,200.000,0.000,0.000,0.000,1.000,1.000,General
 Lights Internal Gains, THERMAL ZONE 5 ASHRAE_90.1-2004 CLIMATEZONE 1-8 MEDIUMOFFICE WHOLEBUILDING LIGHTS,MEDIUM OFFICE_BLDG_LIGHT,THERMAL ZONE 5,496.43,26.7,5343.541,10.764,200.000,0.000,0.000,0.000,1.000,1.000,General
 Lights Internal Gains, THERMAL ZONE 6 ASHRAE_90.1-2004 CLIMATEZONE 1-8 MEDIUMOFFICE WHOLEBUILDING LIGHTS,MEDIUM OFFICE_BLDG_LIGHT,THERMAL ZONE 6,496.43,26.7,5343.541,10.764,200.000,0.000,0.000,0.000,1.000,1.000,General
 Lights Internal Gains, THERMAL ZONE 7 ASHRAE_90.1-2004 CLIMATEZONE 1-8 MEDIUMOFFICE WHOLEBUILDING LIGHTS,MEDIUM OFFICE_BLDG_LIGHT,THERMAL ZONE 7,75.84,4.1,816.359,10.764,200.000,0.000,0.000,0.000,1.000,1.000,General
 Lights Internal Gains, THERMAL ZONE 8 ASHRAE_90.1-2004 CLIMATEZONE 1-8 MEDIUMOFFICE WHOLEBUILDING LIGHTS,MEDIUM OFFICE_BLDG_LIGHT,THERMAL ZONE 8,75.84,4.1,816.359,10.764,200.000,0.000,0.000,0.000,1.000,1.000,General
 Lights Internal Gains, THERMAL ZONE 9 ASHRAE_90.1-2004 CLIMATEZONE 1-8 MEDIUMOFFICE WHOLEBUILDING LIGHTS,MEDIUM OFFICE_BLDG_LIGHT,THERMAL ZONE 9,75.84,4.1,816.359,10.764,200.000,0.000,0.000,0.000,1.000,1.000,General
! <ElectricEquipment Internal Gains - Nominal>,Name,Schedule Name,Zone Name,Zone Floor Area {m2},# Zone Occupants,Equipment Level {W},Equipment/Floor Area {W/m2},Equipment per person {W/person},Fraction Latent,Fraction Radiant,Fraction Lost,Fraction Convected,EndUse SubCategory
 ElectricEquipment Internal Gains, THERMAL ZONE 1 ASHRAE_90.1-2004 CLIMATEZONE 1-8 MEDIUMOFFICE WHOLEBUILDING ELECTRIC EQUIPMENT,MEDIUM OFFICE_BLDG_EQUIP,THERMAL ZONE 1,496.43,26.7,5343.541,10.764,200.000,0.000,0.000,0.000,1.000,General
 ElectricEquipment Internal Gains, THERMAL ZONE 10 ASHRAE_90.1-2004 CLIMATEZONE 1-8 MEDIUMOFFICE WHOLEBUILDING ELECTRIC EQUIPMENT,MEDIUM OFFICE_BLDG_EQUIP,THERMAL ZONE 10,75.84,4.1,816.359,10.764,200.000,0.000,0.000,0.000,1.000,General
 ElectricEquipment Internal Gains, THERMAL ZONE 11 ASHRAE_90.1-2004 CLIMATEZONE 1-8 MEDIUMOFFICE WHOLEBUILDING ELECTRIC EQUIPMENT,MEDIUM OFFICE_BLDG_EQUIP,THERMAL ZONE 11,75.84,4.1,816.359,10.764,200.000,0.000,0.000,0.000,1.000,General
 ElectricEquipment Internal Gains, THERMAL ZONE 12 ASHRAE_90.1-2004 CLIMATEZONE 1-8 MEDIUMOFFICE WHOLEBUILDING ELECTRIC EQUIPMENT,MEDIUM OFFICE_BLDG_EQUIP,THERMAL ZONE 12,75.84,4.1,816.359,10.764,200.000,0.000,0.000,0.000,1.000,General
 ElectricEquipment Internal Gains, THERMAL ZONE 13 ASHRAE_90.1-2004 CLIMATEZONE 1-8 MEDIUMOFFICE WHOLEBUILDING ELECTRIC EQUIPMENT,MEDIUM OFFICE_BLDG_EQUIP,THERMAL ZONE 13,75.84,4.1,816.359,10.764,200.000,0.000,0.000,0.000,1.000,General
 ElectricEquipment Internal Gains, THERMAL ZONE 14 ASHRAE_90.1-2004 CLIMATEZONE 1-8 MEDIUMOFFICE WHOLEBUILDING ELECTRIC EQUIPMENT,MEDIUM OFFICE_BLDG_EQUIP,THERMAL ZONE 14,75.84,4.1,816.359,10.764,200.000,0.000,0.000,0.000,1.000,General
 ElectricEquipment Internal Gains, THERMAL ZONE 15 ASHRAE_90.1-2004 CLIMATEZONE 1-8 MEDIUMOFFICE WHOLEBUILDING ELECTRIC EQUIPMENT,MEDIUM OFFICE_BLDG_EQUIP,THERMAL ZONE 15,75.84,4.1,816.359,10.764,200.000,0.000,0.000,0.000,1.000,General
 ElectricEquipment Internal Gains, THERMAL ZONE 16 ASHRAE_90.1-2004 CLIMATEZONE 1-8 MEDIUMOFFICE WHOLEBUILDING ELECTRIC EQUIPMENT,MEDIUM OFFICE_BLDG_EQUIP,THERMAL ZONE 16,496.43,26.7,5343.541,10.764,200.000,0.000,0.000,0.000,1.000,General
 ElectricEquipment Internal Gains, THERMAL ZONE 17 ASHRAE_90.1-2004 CLIMATEZONE 1-8 MEDIUMOFFICE WHOLEBUILDING ELECTRIC EQUIPMENT,MEDIUM OFFICE_BLDG_EQUIP,THERMAL ZONE 17,75.84,4.1,816.359,10.764,200.000,0.000,0.000,0.000,1.000,General
 ElectricEquipment Internal Gains, THERMAL ZONE 18 ASHRAE_90.1-2004 CLIMATEZONE 1-8 MEDIUMOFFICE WHOLEBUILDING ELECTRIC EQUIPMENT,MEDIUM OFFICE_BLDG_EQUIP,THERMAL ZONE 18,75.84,4.1,816.359,10.764,200.000,0.000,0.000,0.000,1.000,General
 ElectricEquipment Internal Gains, THERMAL ZONE 19 ASHRAE_90.1-2004 CLIMATEZONE 1-8 MEDIUMOFFICE WHOLEBUILDING ELECTRIC EQUIPMENT,MEDIUM OFFICE_BLDG_EQUIP,THERMAL ZONE 19,75.84,4.1,816.359,10.764,200.000,0.000,0.000,0.000,1.000,General
 ElectricEquipment Internal Gains, THERMAL ZONE 2 ASHRAE_90.1-2004 CLIMATEZONE 1-8 MEDIUMOFFICE WHOLEBUILDING ELECTRIC EQUIPMENT,MEDIUM OFFICE_BLDG_EQUIP,THERMAL ZONE 2,75.84,4.1,816.359,10.764,200.000,0.000,0.000,0.000,1.000,General
 ElectricEquipment Internal Gains, THERMAL ZONE 20 ASHRAE_90.1-2004 CLIMATEZONE 1-8 MEDIUMOFFICE WHOLEBUILDING ELECTRIC EQUIPMENT,MEDIUM OFFICE_BLDG_EQUIP,THERMAL ZONE 20,75.84,4.1,816.359,10.764,200.000,0.000,0.000,0.000,1.000,General
 ElectricEquipment Internal Gains, THERMAL ZONE 21 ASHRAE_90.1-2004 CLIMATEZONE 1-8 MEDIUMOFFICE WHOLEBUILDING ELECTRIC EQUIPMENT,MEDIUM OFFICE_BLDG_EQUIP,THERMAL ZONE 21,496.43,26.7,5343.541,10.764,200.000,0.000,0.000,0.000,1.000,General
 ElectricEquipment Internal Gains, THERMAL ZONE 22 ASHRAE_90.1-2004 CLIMATEZONE 1-8 MEDIUMOFFICE WHOLEBUILDING ELECTRIC EQUIPMENT,MEDIUM OFFICE_BLDG_EQUIP,THERMAL ZONE 22,75.84,4.1,816.359,10.764,200.000,0.000,0.000,0.000,1.000,General
 ElectricEquipment Internal Gains, THERMAL ZONE 23 ASHRAE_90.1-2004 CLIMATEZONE 1-8 MEDIUMOFFICE WHOLEBUILDING ELECTRIC EQUIPMENT,MEDIUM OFFICE_BLDG_EQUIP,THERMAL ZONE 23,75.84,4.1,816.359,10.764,200.000,0.000,0.000,0.000,1.000,General
 ElectricEquipment Internal Gains, THERMAL ZONE 24 ASHRAE_90.1-2004 CLIMATEZONE 1-8 MEDIUMOFFICE WHOLEBUILDING ELECTRIC EQUIPMENT,MEDIUM OFFICE_BLDG_EQUIP,THERMAL ZONE 24,75.84,4.1,816.359,10.764,200.000,0.000,0.000,0.000,1.000,General
 ElectricEquipment Internal Gains, THERMAL ZONE 25 ASHRAE_90.1-2004 CLIMATEZONE 1-8 MEDIUMOFFICE WHOLEBUILDING ELECTRIC EQUIPMENT,MEDIUM OFFICE_BLDG_EQUIP,THERMAL ZONE 25,75.84,4.1,816.359,10.764,200.000,0.000,0.000,0.000,1.000,General
 ElectricEquipment Internal Gains, THERMAL ZONE 3 ASHRAE_90.1-2004 CLIMATEZONE 1-8 MEDIUMOFFICE WHOLEBUILDING ELECTRIC EQUIPMENT,MEDIUM OFFICE_BLDG_EQUIP,THERMAL ZONE 3,75.84,4.1,816.359,10.764,200.000,0.000,0.000,0.000,1.000,General
 ElectricEquipment Internal Gains, THERMAL ZONE 4 ASHRAE_90.1-2004 CLIMATEZONE 1-8 MEDIUMOFFICE WHOLEBUILDING ELECTRIC EQUIPMENT,MEDIUM OFFICE_BLDG_EQUIP,THERMAL ZONE 4,75.84,4.1,816.359,10.764,200.000,0.000,0.000,0.000,1.000,General
 ElectricEquipment Internal Gains, THERMAL ZONE 5 ASHRAE_90.1-2004 CLIMATEZONE 1-8 MEDIUMOFFICE WHOLEBUILDING ELECTRIC EQUIPMENT,MEDIUM OFFICE_BLDG_EQUIP,THERMAL ZONE 5,496.43,26.7,5343.541,10.764,200.000,0.000,0.000,0.000,1.000,General
 ElectricEquipment Internal Gains, THERMAL ZONE 6 ASHRAE_90.1-2004 CLIMATEZONE 1-8 MEDIUMOFFICE WHOLEBUILDING ELECTRIC EQUIPMENT,MEDIUM OFFICE_BLDG_EQUIP,THERMAL ZONE 6,496.43,26.7,5343.541,10.764,200.000,0.000,0.000,0.000,1.000,General
 ElectricEquipment Internal Gains, THERMAL ZONE 7 ASHRAE_90.1-2004 CLIMATEZONE 1-8 MEDIUMOFFICE WHOLEBUILDING ELECTRIC EQUIPMENT,MEDIUM OFFICE_BLDG_EQUIP,THERMAL ZONE 7,75.84,4.1,816.359,10.764,200.000,0.000,0.000,0.000,1.000,General
 ElectricEquipment Internal Gains, THERMAL ZONE 8 ASHRAE_90.1-2004 CLIMATEZONE 1-8 MEDIUMOFFICE WHOLEBUILDING ELECTRIC EQUIPMENT,MEDIUM OFFICE_BLDG_EQUIP,THERMAL ZONE 8,75.84,4.1,816.359,10.764,200.000,0.000,0.000,0.000,1.000,General
 ElectricEquipment Internal Gains, THERMAL ZONE 9 ASHRAE_90.1-2004 CLIMATEZONE 1-8 MEDIUMOFFICE WHOLEBUILDING ELECTRIC EQUIPMENT,MEDIUM OFFICE_BLDG_EQUIP,THERMAL ZONE 9,75.84,4.1,816.359,10.764,200.000,0.000,0.000,0.000,1.000,General
! <Shadowing/Sun Position Calculations> [Annual Simulations], Value {days}, Allowable Number Figures in Shadow Overlap {}, Polygon Clipping Algorithm, Sky Diffuse Modeling Algorithm
Shadowing/Sun Position Calculations,20,15000,SutherlandHodgman,SimpleSkyDiffuseModeling
! <Infiltration Airflow Stats - Nominal>,Name,Schedule Name,Zone Name, Zone Floor Area {m2}, # Zone Occupants,Design Volume Flow Rate {m3/s},Volume Flow Rate/Floor Area {m3/s/m2},Volume Flow Rate/Exterior Surface Area {m3/s/m2},ACH - Air Changes per Hour,Equation A - Constant Term Coefficient {},Equation B - Temperature Term Coefficient {1/C},Equation C - Velocity Term Coefficient {s/m}, Equation D - Velocity Squared Term Coefficient {s2/m2}
 ZoneInfiltration Airflow Stats, THERMAL ZONE 1 ASHRAE_90.1-2004 CLIMATEZONE 1-8 MEDIUMOFFICE WHOLEBUILDING INFILTRATION,MEDIUM OFFICE_INFIL_QUARTER_ON,THERMAL ZONE 1,496.43,26.7,0.000,0.000,N/A,0.000,1.000,0.000,0.000,0.000
 ZoneInfiltration Airflow Stats, THERMAL ZONE 10 ASHRAE_90.1-2004 CLIMATEZONE 1-8 MEDIUMOFFICE WHOLEBUILDING INFILTRATION,MEDIUM OFFICE_INFIL_QUARTER_ON,THERMAL ZONE 10,75.84,4.1,3.419E-002,4.508E-004,3.023E-004,0.406,1.000,0.000,0.000,0.000
 ZoneInfiltration Airflow Stats, THERMAL ZONE 11 ASHRAE_90.1-2004 CLIMATEZONE 1-8 MEDIUMOFFICE WHOLEBUILDING INFILTRATION,MEDIUM OFFICE_INFIL_QUARTER_ON,THERMAL ZONE 11,75.84,4.1,3.419E-002,4.508E-004,3.023E-004,0.406,1.000,0.000,0.000,0.000
 ZoneInfiltration Airflow Stats, THERMAL ZONE 12 ASHRAE_90.1-2004 CLIMATEZONE 1-8 MEDIUMOFFICE WHOLEBUILDING INFILTRATION,MEDIUM OFFICE_INFIL_QUARTER_ON,THERMAL ZONE 12,75.84,4.1,5.712E-002,7.531E-004,3.023E-004,0.678,1.000,0.000,0.000,0.000
 ZoneInfiltration Airflow Stats, THERMAL ZONE 13 ASHRAE_90.1-2004 CLIMATEZONE 1-8 MEDIUMOFFICE WHOLEBUILDING INFILTRATION,MEDIUM OFFICE_INFIL_QUARTER_ON,THERMAL ZONE 13,75.84,4.1,3.419E-002,4.508E-004,3.023E-004,0.406,1.000,0.000,0.000,0.000
 ZoneInfiltration Airflow Stats, THERMAL ZONE 14 ASHRAE_90.1-2004 CLIMATEZONE 1-8 MEDIUMOFFICE WHOLEBUILDING INFILTRATION,MEDIUM OFFICE_INFIL_QUARTER_ON,THERMAL ZONE 14,75.84,4.1,3.419E-002,4.508E-004,3.023E-004,0.406,1.000,0.000,0.000,0.000
 ZoneInfiltration Airflow Stats, THERMAL ZONE 15 ASHRAE_90.1-2004 CLIMATEZONE 1-8 MEDIUMOFFICE WHOLEBUILDING INFILTRATION,MEDIUM OFFICE_INFIL_QUARTER_ON,THERMAL ZONE 15,75.84,4.1,3.419E-002,4.508E-004,3.023E-004,0.406,1.000,0.000,0.000,0.000
 ZoneInfiltration Airflow Stats, THERMAL ZONE 16 ASHRAE_90.1-2004 CLIMATEZONE 1-8 MEDIUMOFFICE WHOLEBUILDING INFILTRATION,MEDIUM OFFICE_INFIL_QUARTER_ON,THERMAL ZONE 16,496.43,26.7,0.000,0.000,N/A,0.000,1.000,0.000,0.000,0.000
 ZoneInfiltration Airflow Stats, THERMAL ZONE 17 ASHRAE_90.1-2004 CLIMATEZONE 1-8 MEDIUMOFFICE WHOLEBUILDING INFILTRATION,MEDIUM OFFICE_INFIL_QUARTER_ON,THERMAL ZONE 17,75.84,4.1,3.419E-002,4.508E-004,3.023E-004,0.406,1.000,0.000,0.000,0.000
 ZoneInfiltration Airflow Stats, THERMAL ZONE 18 ASHRAE_90.1-2004 CLIMATEZONE 1-8 MEDIUMOFFICE WHOLEBUILDING INFILTRATION,MEDIUM OFFICE_INFIL_QUARTER_ON,THERMAL ZONE 18,75.84,4.1,3.419E-002,4.508E-004,3.023E-004,0.406,1.000,0.000,0.000,0.000
 ZoneInfiltration Airflow Stats, THERMAL ZONE 19 ASHRAE_90.1-2004 CLIMATEZONE 1-8 MEDIUMOFFICE WHOLEBUILDING INFILTRATION,MEDIUM OFFICE_INFIL_QUARTER_ON,THERMAL ZONE 19,75.84,4.1,3.419E-002,4.508E-004,3.023E-004,0.406,1.000,0.000,0.000,0.000
 ZoneInfiltration Airflow Stats, THERMAL ZONE 2 ASHRAE_90.1-2004 CLIMATEZONE 1-8 MEDIUMOFFICE WHOLEBUILDING INFILTRATION,MEDIUM OFFICE_INFIL_QUARTER_ON,THERMAL ZONE 2,75.84,4.1,3.419E-002,4.508E-004,3.023E-004,0.406,1.000,0.000,0.000,0.000
 ZoneInfiltration Airflow Stats, THERMAL ZONE 20 ASHRAE_90.1-2004 CLIMATEZONE 1-8 MEDIUMOFFICE WHOLEBUILDING INFILTRATION,MEDIUM OFFICE_INFIL_QUARTER_ON,THERMAL ZONE 20,75.84,4.1,3.419E-002,4.508E-004,3.023E-004,0.406,1.000,0.000,0.000,0.000
 ZoneInfiltration Airflow Stats, THERMAL ZONE 21 ASHRAE_90.1-2004 CLIMATEZONE 1-8 MEDIUMOFFICE WHOLEBUILDING INFILTRATION,MEDIUM OFFICE_INFIL_QUARTER_ON,THERMAL ZONE 21,496.43,26.7,0.000,0.000,N/A,0.000,1.000,0.000,0.000,0.000
 ZoneInfiltration Airflow Stats, THERMAL ZONE 22 ASHRAE_90.1-2004 CLIMATEZONE 1-8 MEDIUMOFFICE WHOLEBUILDING INFILTRATION,MEDIUM OFFICE_INFIL_QUARTER_ON,THERMAL ZONE 22,75.84,4.1,5.712E-002,7.531E-004,3.023E-004,0.678,1.000,0.000,0.000,0.000
 ZoneInfiltration Airflow Stats, THERMAL ZONE 23 ASHRAE_90.1-2004 CLIMATEZONE 1-8 MEDIUMOFFICE WHOLEBUILDING INFILTRATION,MEDIUM OFFICE_INFIL_QUARTER_ON,THERMAL ZONE 23,75.84,4.1,3.419E-002,4.508E-004,3.023E-004,0.406,1.000,0.000,0.000,0.000
 ZoneInfiltration Airflow Stats, THERMAL ZONE 24 ASHRAE_90.1-2004 CLIMATEZONE 1-8 MEDIUMOFFICE WHOLEBUILDING INFILTRATION,MEDIUM OFFICE_INFIL_QUARTER_ON,THERMAL ZONE 24,75.84,4.1,3.419E-002,4.508E-004,3.023E-004,0.406,1.000,0.000,0.000,0.000
 ZoneInfiltration Airflow Stats, THERMAL ZONE 25 ASHRAE_90.1-2004 CLIMATEZONE 1-8 MEDIUMOFFICE WHOLEBUILDING INFILTRATION,MEDIUM OFFICE_INFIL_QUARTER_ON,THERMAL ZONE 25,75.84,4.1,3.419E-002,4.508E-004,3.023E-004,0.406,1.000,0.000,0.000,0.000
 ZoneInfiltration Airflow Stats, THERMAL ZONE 3 ASHRAE_90.1-2004 CLIMATEZONE 1-8 MEDIUMOFFICE WHOLEBUILDING INFILTRATION,MEDIUM OFFICE_INFIL_QUARTER_ON,THERMAL ZONE 3,75.84,4.1,5.712E-002,7.531E-004,3.023E-004,0.678,1.000,0.000,0.000,0.000
 ZoneInfiltration Airflow Stats, THERMAL ZONE 4 ASHRAE_90.1-2004 CLIMATEZONE 1-8 MEDIUMOFFICE WHOLEBUILDING INFILTRATION,MEDIUM OFFICE_INFIL_QUARTER_ON,THERMAL ZONE 4,75.84,4.1,3.419E-002,4.508E-004,3.023E-004,0.406,1.000,0.000,0.000,0.000
 ZoneInfiltration Airflow Stats, THERMAL ZONE 5 ASHRAE_90.1-2004 CLIMATEZONE 1-8 MEDIUMOFFICE WHOLEBUILDING INFILTRATION,MEDIUM OFFICE_INFIL_QUARTER_ON,THERMAL ZONE 5,496.43,26.7,0.000,0.000,N/A,0.000,1.000,0.000,0.000,0.000
 ZoneInfiltration Airflow Stats, THERMAL ZONE 6 ASHRAE_90.1-2004 CLIMATEZONE 1-8 MEDIUMOFFICE WHOLEBUILDING INFILTRATION,MEDIUM OFFICE_INFIL_QUARTER_ON,THERMAL ZONE 6,496.43,26.7,0.150,3.023E-004,3.023E-004,0.272,1.000,0.000,0.000,0.000
 ZoneInfiltration Airflow Stats, THERMAL ZONE 7 ASHRAE_90.1-2004 CLIMATEZONE 1-8 MEDIUMOFFICE WHOLEBUILDING INFILTRATION,MEDIUM OFFICE_INFIL_QUARTER_ON,THERMAL ZONE 7,75.84,4.1,3.419E-002,4.508E-004,3.023E-004,0.406,1.000,0.000,0.000,0.000
 ZoneInfiltration Airflow Stats, THERMAL ZONE 8 ASHRAE_90.1-2004 CLIMATEZONE 1-8 MEDIUMOFFICE WHOLEBUILDING INFILTRATION,MEDIUM OFFICE_INFIL_QUARTER_ON,THERMAL ZONE 8,75.84,4.1,5.712E-002,7.531E-004,3.023E-004,0.678,1.000,0.000,0.000,0.000
 ZoneInfiltration Airflow Stats, THERMAL ZONE 9 ASHRAE_90.1-2004 CLIMATEZONE 1-8 MEDIUMOFFICE WHOLEBUILDING INFILTRATION,MEDIUM OFFICE_INFIL_QUARTER_ON,THERMAL ZONE 9,75.84,4.1,3.419E-002,4.508E-004,3.023E-004,0.406,1.000,0.000,0.000,0.000
! <AirFlow Model>, Simple
 AirFlow Model, Simple
! <RoomAir Model>, Zone Name, Mixing/Mundt/UCSDDV/UCSDCV/UCSDUFI/UCSDUFE/User Defined
RoomAir Model,THERMAL ZONE 18,Mixing/Well-Stirred
RoomAir Model,THERMAL ZONE 19,Mixing/Well-Stirred
RoomAir Model,THERMAL ZONE 17,Mixing/Well-Stirred
RoomAir Model,THERMAL ZONE 14,Mixing/Well-Stirred
RoomAir Model,THERMAL ZONE 21,Mixing/Well-Stirred
RoomAir Model,THERMAL ZONE 8,Mixing/Well-Stirred
RoomAir Model,THERMAL ZONE 11,Mixing/Well-Stirred
RoomAir Model,THERMAL ZONE 22,Mixing/Well-Stirred
RoomAir Model,THERMAL ZONE 1,Mixing/Well-Stirred
RoomAir Model,THERMAL ZONE 16,Mixing/Well-Stirred
RoomAir Model,THERMAL ZONE 5,Mixing/Well-Stirred
RoomAir Model,THERMAL ZONE 7,Mixing/Well-Stirred
RoomAir Model,THERMAL ZONE 24,Mixing/Well-Stirred
RoomAir Model,THERMAL ZONE 10,Mixing/Well-Stirred
RoomAir Model,THERMAL ZONE 3,Mixing/Well-Stirred
RoomAir Model,THERMAL ZONE 2,Mixing/Well-Stirred
RoomAir Model,THERMAL ZONE 4,Mixing/Well-Stirred
RoomAir Model,THERMAL ZONE 9,Mixing/Well-Stirred
RoomAir Model,THERMAL ZONE 25,Mixing/Well-Stirred
RoomAir Model,THERMAL ZONE 23,Mixing/Well-Stirred
RoomAir Model,THERMAL ZONE 15,Mixing/Well-Stirred
RoomAir Model,THERMAL ZONE 20,Mixing/Well-Stirred
RoomAir Model,THERMAL ZONE 6,Mixing/Well-Stirred
RoomAir Model,THERMAL ZONE 12,Mixing/Well-Stirred
RoomAir Model,THERMAL ZONE 13,Mixing/Well-Stirred
! <AirflowNetwork Model:Control>, No Multizone or Distribution/Multizone with Distribution/Multizone without Distribution/Multizone with Distribution only during Fan Operation
AirflowNetwork Model:Control,NoMultizoneOrDistribution
! <Zone Volume Capacitance Multiplier>, Sensible Heat Capacity Multiplier, Moisture Capacity Multiplier, Carbon Dioxide Capacity Multiplier, Generic Contaminant Capacity Multiplier
Zone Volume Capacitance Multiplier,   1.000 ,   1.000,   1.000,   1.000
! <Load Timesteps in Zone Design Calculation Averaging Window>, Value
 Load Timesteps in Zone Design Calculation Averaging Window,    4
! <Heating Sizing Factor Information>, Sizing Factor ID, Value
 Heating Sizing Factor Information, Global,   1.2500    
 Heating Sizing Factor Information, Zone THERMAL ZONE 18,   1.2500    
 Heating Sizing Factor Information, Zone THERMAL ZONE 19,   1.2500    
 Heating Sizing Factor Information, Zone THERMAL ZONE 17,   1.2500    
 Heating Sizing Factor Information, Zone THERMAL ZONE 14,   1.2500    
 Heating Sizing Factor Information, Zone THERMAL ZONE 21,   1.2500    
 Heating Sizing Factor Information, Zone THERMAL ZONE 8,   1.2500    
 Heating Sizing Factor Information, Zone THERMAL ZONE 11,   1.2500    
 Heating Sizing Factor Information, Zone THERMAL ZONE 22,   1.2500    
 Heating Sizing Factor Information, Zone THERMAL ZONE 1,   1.2500    
 Heating Sizing Factor Information, Zone THERMAL ZONE 16,   1.2500    
 Heating Sizing Factor Information, Zone THERMAL ZONE 5,   1.2500    
 Heating Sizing Factor Information, Zone THERMAL ZONE 7,   1.2500    
 Heating Sizing Factor Information, Zone THERMAL ZONE 24,   1.2500    
 Heating Sizing Factor Information, Zone THERMAL ZONE 10,   1.2500    
 Heating Sizing Factor Information, Zone THERMAL ZONE 3,   1.2500    
 Heating Sizing Factor Information, Zone THERMAL ZONE 2,   1.2500    
 Heating Sizing Factor Information, Zone THERMAL ZONE 4,   1.2500    
 Heating Sizing Factor Information, Zone THERMAL ZONE 9,   1.2500    
 Heating Sizing Factor Information, Zone THERMAL ZONE 25,   1.2500    
 Heating Sizing Factor Information, Zone THERMAL ZONE 23,   1.2500    
 Heating Sizing Factor Information, Zone THERMAL ZONE 15,   1.2500    
 Heating Sizing Factor Information, Zone THERMAL ZONE 20,   1.2500    
 Heating Sizing Factor Information, Zone THERMAL ZONE 6,   1.2500    
 Heating Sizing Factor Information, Zone THERMAL ZONE 12,   1.2500    
 Heating Sizing Factor Information, Zone THERMAL ZONE 13,   1.2500    
! <Cooling Sizing Factor Information>, Sizing Factor ID, Value
 Cooling Sizing Factor Information, Global,   1.1500    
 Cooling Sizing Factor Information, Zone THERMAL ZONE 18,   1.1500    
 Cooling Sizing Factor Information, Zone THERMAL ZONE 19,   1.1500    
 Cooling Sizing Factor Information, Zone THERMAL ZONE 17,   1.1500    
 Cooling Sizing Factor Information, Zone THERMAL ZONE 14,   1.1500    
 Cooling Sizing Factor Information, Zone THERMAL ZONE 21,   1.1500    
 Cooling Sizing Factor Information, Zone THERMAL ZONE 8,   1.1500    
 Cooling Sizing Factor Information, Zone THERMAL ZONE 11,   1.1500    
 Cooling Sizing Factor Information, Zone THERMAL ZONE 22,   1.1500    
 Cooling Sizing Factor Information, Zone THERMAL ZONE 1,   1.1500    
 Cooling Sizing Factor Information, Zone THERMAL ZONE 16,   1.1500    
 Cooling Sizing Factor Information, Zone THERMAL ZONE 5,   1.1500    
 Cooling Sizing Factor Information, Zone THERMAL ZONE 7,   1.1500    
 Cooling Sizing Factor Information, Zone THERMAL ZONE 24,   1.1500    
 Cooling Sizing Factor Information, Zone THERMAL ZONE 10,   1.1500    
 Cooling Sizing Factor Information, Zone THERMAL ZONE 3,   1.1500    
 Cooling Sizing Factor Information, Zone THERMAL ZONE 2,   1.1500    
 Cooling Sizing Factor Information, Zone THERMAL ZONE 4,   1.1500    
 Cooling Sizing Factor Information, Zone THERMAL ZONE 9,   1.1500    
 Cooling Sizing Factor Information, Zone THERMAL ZONE 25,   1.1500    
 Cooling Sizing Factor Information, Zone THERMAL ZONE 23,   1.1500    
 Cooling Sizing Factor Information, Zone THERMAL ZONE 15,   1.1500    
 Cooling Sizing Factor Information, Zone THERMAL ZONE 20,   1.1500    
 Cooling Sizing Factor Information, Zone THERMAL ZONE 6,   1.1500    
 Cooling Sizing Factor Information, Zone THERMAL ZONE 12,   1.1500    
 Cooling Sizing Factor Information, Zone THERMAL ZONE 13,   1.1500    
! <Zone Sizing Information>, Zone Name, Load Type, Calc Des Load {W}, User Des Load {W}, Calc Des Air Flow Rate {m3/s}, User Des Air Flow Rate {m3/s}, Design Day Name, Date/Time of Peak, Temperature at Peak {C}, Humidity Ratio at Peak {kgWater/kgDryAir}, Floor Area {m2}, # Occupants, Calc Outdoor Air Flow Rate {m3/s}
 Zone Sizing Information, THERMAL ZONE 18, Cooling, 4770.26948, 5485.80990, 0.27731, 0.31891, SAN FRANCISCO INTL AP ANN CLG .4% CONDNS DB=>MWB, 8/21 13:45:00, 28.19375, 7.71372E-003, 75.84221, 4.08179, 3.85278E-002
 Zone Sizing Information, THERMAL ZONE 18, Heating, 3444.36003, 4305.45003, 0.17531, 0.21914, SAN FRANCISCO INTL AP ANN HTG 99.6% CONDNS DB, 1/21 06:00:00, 3.80000, 4.96421E-003, 75.84221, 4.08179, 3.85278E-002
 Zone Sizing Information, THERMAL ZONE 19, Cooling, 7776.74114, 8943.25232, 0.45208, 0.51989, SAN FRANCISCO INTL AP ANN CLG .4% CONDNS DB=>MWB, 8/21 17:30:00, 26.68500, 7.71373E-003, 75.84221, 4.08179, 3.85278E-002
 Zone Sizing Information, THERMAL ZONE 19, Heating, 2944.27217, 3680.34021, 0.14986, 0.18733, SAN FRANCISCO INTL AP ANN HTG 99.6% CONDNS DB, 1/21 06:00:00, 3.80000, 4.96421E-003, 75.84221, 4.08179, 3.85278E-002
 Zone Sizing Information, THERMAL ZONE 17, Cooling, 1476.68169, 1698.18395, 8.58470E-002, 9.87241E-002, SAN FRANCISCO INTL AP ANN CLG .4% CONDNS DB=>MWB, 8/21 15:00:00, 28.30000, 7.71372E-003, 75.84221, 4.08179, 3.85278E-002
 Zone Sizing Information, THERMAL ZONE 17, Heating, 3447.24846, 4309.06058, 0.17546, 0.21933, SAN FRANCISCO INTL AP ANN HTG 99.6% CONDNS DB, 1/21 06:00:00, 3.80000, 4.96421E-003, 75.84221, 4.08179, 3.85278E-002
 Zone Sizing Information, THERMAL ZONE 14, Cooling, 2583.92704, 2971.51609, 0.15021, 0.17275, SAN FRANCISCO INTL AP ANN CLG .4% CONDNS DB=>MWB, 8/21 15:30:00, 28.04500, 7.71373E-003, 75.84221, 4.08179, 3.85278E-002
 Zone Sizing Information, THERMAL ZONE 14, Heating, 2944.27217, 3680.34021, 0.14986, 0.18733, SAN FRANCISCO INTL AP ANN HTG 99.6% CONDNS DB, 1/21 06:00:00, 3.80000, 4.96421E-003, 75.84221, 4.08179, 3.85278E-002
 Zone Sizing Information, THERMAL ZONE 21, Cooling, 6309.60640, 7256.04736, 0.36682, 0.42185, SAN FRANCISCO INTL AP ANN CLG .4% CONDNS DB=>MWB, 8/21 16:30:00, 27.45000, 7.71373E-003, 496.43117, 26.71770, 0.25219
 Zone Sizing Information, THERMAL ZONE 21, Heating, 4701.38963, 5876.73704, 0.23933, 0.29916, SAN FRANCISCO INTL AP ANN HTG 99.6% CONDNS DB, 1/21 06:45:00, 3.80000, 4.96421E-003, 496.43117, 26.71770, 0.25219
 Zone Sizing Information, THERMAL ZONE 8, Cooling, 2745.58917, 3157.42755, 0.15961, 0.18355, SAN FRANCISCO INTL AP ANN CLG .4% CONDNS DB=>MWB, 8/21 15:30:00, 28.04500, 7.71373E-003, 75.84221, 4.08179, 3.85278E-002
 Zone Sizing Information, THERMAL ZONE 8, Heating, 3854.39108, 4817.98885, 0.19617, 0.24521, SAN FRANCISCO INTL AP ANN HTG 99.6% CONDNS DB, 1/21 06:00:00, 3.80000, 4.96421E-003, 75.84221, 4.08179, 3.85278E-002
 Zone Sizing Information, THERMAL ZONE 11, Cooling, 6941.37576, 7982.58212, 0.40352, 0.46405, SAN FRANCISCO INTL AP ANN CLG .4% CONDNS DB=>MWB, 8/21 10:45:00, 26.02625, 7.71373E-003, 75.84221, 4.08179, 3.85278E-002
 Zone Sizing Information, THERMAL ZONE 11, Heating, 2942.48770, 3678.10963, 0.14977, 0.18721, SAN FRANCISCO INTL AP ANN HTG 99.6% CONDNS DB, 1/21 06:00:00, 3.80000, 4.96421E-003, 75.84221, 4.08179, 3.85278E-002
 Zone Sizing Information, THERMAL ZONE 22, Cooling, 6570.41512, 7555.97739, 0.38195, 0.43924, SAN FRANCISCO INTL AP ANN CLG .4% CONDNS DB=>MWB, 8/21 14:30:00, 28.30000, 7.71372E-003, 75.84221, 4.08179, 3.85278E-002
 Zone Sizing Information, THERMAL ZONE 22, Heating, 3859.07676, 4823.84595, 0.19641, 0.24551, SAN FRANCISCO INTL AP ANN HTG 99.6% CONDNS DB, 1/21 06:00:00, 3.80000, 4.96421E-003, 75.84221, 4.08179, 3.85278E-002
 Zone Sizing Information, THERMAL ZONE 1, Cooling, 13116.15687, 15083.58040, 0.76255, 0.87693, SAN FRANCISCO INTL AP ANN CLG .4% CONDNS DB=>MWB, 8/21 17:30:00, 26.68500, 7.71373E-003, 496.43117, 26.71770, 0.25219
 Zone Sizing Information, THERMAL ZONE 1, Heating, 1272.16741, 1590.20927, 6.47608E-002, 0.25219, SAN FRANCISCO INTL AP ANN HTG 99.6% CONDNS DB, 1/21 07:15:00, 3.80000, 4.96421E-003, 496.43117, 26.71770, 0.25219
 Zone Sizing Information, THERMAL ZONE 16, Cooling, 12954.94264, 14898.18403, 0.75317, 0.86615, SAN FRANCISCO INTL AP ANN CLG .4% CONDNS DB=>MWB, 8/21 17:30:00, 26.68500, 7.71373E-003, 496.43117, 26.71770, 0.25219
 Zone Sizing Information, THERMAL ZONE 16, Heating, 1107.09464, 1383.86830, 5.63576E-002, 0.25219, SAN FRANCISCO INTL AP ANN HTG 99.6% CONDNS DB, 1/21 07:00:00, 3.80000, 4.96421E-003, 496.43117, 26.71770, 0.25219
 Zone Sizing Information, THERMAL ZONE 5, Cooling, 12139.09547, 13959.95979, 0.70576, 0.81162, SAN FRANCISCO INTL AP ANN CLG .4% CONDNS DB=>MWB, 8/21 17:15:00, 26.89750, 7.71372E-003, 496.43117, 26.71770, 0.25219
 Zone Sizing Information, THERMAL ZONE 5, Heating, 1458.97911, 1823.72388, 7.42706E-002, 0.25219, SAN FRANCISCO INTL AP ANN HTG 99.6% CONDNS DB, 1/21 07:00:00, 3.80000, 4.96421E-003, 496.43117, 26.71770, 0.25219
 Zone Sizing Information, THERMAL ZONE 7, Cooling, 7930.93561, 9120.57595, 0.46104, 0.53020, SAN FRANCISCO INTL AP ANN CLG .4% CONDNS DB=>MWB, 8/21 17:30:00, 26.68500, 7.71373E-003, 75.84221, 4.08179, 3.85278E-002
 Zone Sizing Information, THERMAL ZONE 7, Heating, 2912.02578, 3640.03223, 0.14822, 0.18527, SAN FRANCISCO INTL AP ANN HTG 99.6% CONDNS DB, 1/21 06:00:00, 3.80000, 4.96421E-003, 75.84221, 4.08179, 3.85278E-002
 Zone Sizing Information, THERMAL ZONE 24, Cooling, 6761.14004, 7775.31104, 0.39304, 0.45200, SAN FRANCISCO INTL AP ANN CLG .4% CONDNS DB=>MWB, 8/21 14:45:00, 28.30000, 7.71372E-003, 75.84221, 4.08179, 3.85278E-002
 Zone Sizing Information, THERMAL ZONE 24, Heating, 2914.32997, 3642.91246, 0.14834, 0.18542, SAN FRANCISCO INTL AP ANN HTG 99.6% CONDNS DB, 1/21 06:00:00, 3.80000, 4.96421E-003, 75.84221, 4.08179, 3.85278E-002
 Zone Sizing Information, THERMAL ZONE 10, Cooling, 6750.01475, 7762.51696, 0.39239, 0.45125, SAN FRANCISCO INTL AP ANN CLG .4% CONDNS DB=>MWB, 8/21 10:45:00, 26.02625, 7.71373E-003, 75.84221, 4.08179, 3.85278E-002
 Zone Sizing Information, THERMAL ZONE 10, Heating, 2944.52294, 3680.65368, 0.14987, 0.18734, SAN FRANCISCO INTL AP ANN HTG 99.6% CONDNS DB, 1/21 06:00:00, 3.80000, 4.96421E-003, 75.84221, 4.08179, 3.85278E-002
 Zone Sizing Information, THERMAL ZONE 3, Cooling, 6701.52666, 7706.75566, 0.38957, 0.44801, SAN FRANCISCO INTL AP ANN CLG .4% CONDNS DB=>MWB, 8/21 10:45:00, 26.02625, 7.71373E-003, 75.84221, 4.08179, 3.85278E-002
 Zone Sizing Information, THERMAL ZONE 3, Heating, 3859.07676, 4823.84595, 0.19641, 0.24551, SAN FRANCISCO INTL AP ANN HTG 99.6% CONDNS DB, 1/21 06:00:00, 3.80000, 4.96421E-003, 75.84221, 4.08179, 3.85278E-002
 Zone Sizing Information, THERMAL ZONE 2, Cooling, 6159.13675, 7083.00726, 0.35805, 0.41175, SAN FRANCISCO INTL AP ANN CLG .4% CONDNS DB=>MWB, 8/21 17:00:00, 27.11000, 7.71372E-003, 75.84221, 4.08179, 3.85278E-002
 Zone Sizing Information, THERMAL ZONE 2, Heating, 3447.24846, 4309.06058, 0.17546, 0.21933, SAN FRANCISCO INTL AP ANN HTG 99.6% CONDNS DB, 1/21 06:00:00, 3.80000, 4.96421E-003, 75.84221, 4.08179, 3.85278E-002
 Zone Sizing Information, THERMAL ZONE 4, Cooling, 7934.78593, 9125.00382, 0.46127, 0.53046, SAN FRANCISCO INTL AP ANN CLG .4% CONDNS DB=>MWB, 8/21 17:30:00, 26.68500, 7.71373E-003, 75.84221, 4.08179, 3.85278E-002
 Zone Sizing Information, THERMAL ZONE 4, Heating, 2938.74044, 3673.42556, 0.14958, 0.18697, SAN FRANCISCO INTL AP ANN HTG 99.6% CONDNS DB, 1/21 06:00:00, 3.80000, 4.96421E-003, 75.84221, 4.08179, 3.85278E-002
 Zone Sizing Information, THERMAL ZONE 9, Cooling, 2764.77536, 3179.49167, 0.16073, 0.18484, SAN FRANCISCO INTL AP ANN CLG .4% CONDNS DB=>MWB, 8/21 15:30:00, 28.04500, 7.71373E-003, 75.84221, 4.08179, 3.85278E-002
 Zone Sizing Information, THERMAL ZONE 9, Heating, 2938.74044, 3673.42556, 0.14958, 0.18697, SAN FRANCISCO INTL AP ANN HTG 99.6% CONDNS DB, 1/21 06:00:00, 3.80000, 4.96421E-003, 75.84221, 4.08179, 3.85278E-002
 Zone Sizing Information, THERMAL ZONE 25, Cooling, 5226.41383, 6010.37591, 0.30383, 0.34940, SAN FRANCISCO INTL AP ANN CLG .4% CONDNS DB=>MWB, 8/21 09:45:00, 24.70875, 7.71372E-003, 75.84221, 4.08179, 3.85278E-002
 Zone Sizing Information, THERMAL ZONE 25, Heating, 3444.36003, 4305.45003, 0.17531, 0.21914, SAN FRANCISCO INTL AP ANN HTG 99.6% CONDNS DB, 1/21 06:00:00, 3.80000, 4.96421E-003, 75.84221, 4.08179, 3.85278E-002
 Zone Sizing Information, THERMAL ZONE 23, Cooling, 6768.28003, 7783.52203, 0.39346, 0.45247, SAN FRANCISCO INTL AP ANN CLG .4% CONDNS DB=>MWB, 8/21 14:45:00, 28.30000, 7.71372E-003, 75.84221, 4.08179, 3.85278E-002
 Zone Sizing Information, THERMAL ZONE 23, Heating, 2942.48770, 3678.10963, 0.14977, 0.18721, SAN FRANCISCO INTL AP ANN HTG 99.6% CONDNS DB, 1/21 06:00:00, 3.80000, 4.96421E-003, 75.84221, 4.08179, 3.85278E-002
 Zone Sizing Information, THERMAL ZONE 15, Cooling, 6602.84881, 7593.27613, 0.38384, 0.44141, SAN FRANCISCO INTL AP ANN CLG .4% CONDNS DB=>MWB, 8/21 14:45:00, 28.30000, 7.71372E-003, 75.84221, 4.08179, 3.85278E-002
 Zone Sizing Information, THERMAL ZONE 15, Heating, 2944.52294, 3680.65368, 0.14987, 0.18734, SAN FRANCISCO INTL AP ANN HTG 99.6% CONDNS DB, 1/21 06:00:00, 3.80000, 4.96421E-003, 75.84221, 4.08179, 3.85278E-002
 Zone Sizing Information, THERMAL ZONE 20, Cooling, 6930.53785, 7970.11853, 0.40289, 0.46332, SAN FRANCISCO INTL AP ANN CLG .4% CONDNS DB=>MWB, 8/21 10:45:00, 26.02625, 7.71373E-003, 75.84221, 4.08179, 3.85278E-002
 Zone Sizing Information, THERMAL ZONE 20, Heating, 2914.32997, 3642.91246, 0.14834, 0.18542, SAN FRANCISCO INTL AP ANN HTG 99.6% CONDNS DB, 1/21 06:00:00, 3.80000, 4.96421E-003, 75.84221, 4.08179, 3.85278E-002
 Zone Sizing Information, THERMAL ZONE 6, Cooling, 13135.40678, 15105.71780, 0.76365, 0.87820, SAN FRANCISCO INTL AP ANN CLG .4% CONDNS DB=>MWB, 8/21 18:15:00, 25.94125, 7.71372E-003, 496.43117, 26.71770, 0.25219
 Zone Sizing Information, THERMAL ZONE 6, Heating, 6852.04347, 8565.05434, 0.34877, 0.43596, SAN FRANCISCO INTL AP ANN HTG 99.6% CONDNS DB, 1/21 06:00:00, 3.80000, 4.96421E-003, 496.43117, 26.71770, 0.25219
 Zone Sizing Information, THERMAL ZONE 12, Cooling, 7807.08731, 8978.15041, 0.45384, 0.52192, SAN FRANCISCO INTL AP ANN CLG .4% CONDNS DB=>MWB, 8/21 17:30:00, 26.68500, 7.71373E-003, 75.84221, 4.08179, 3.85278E-002
 Zone Sizing Information, THERMAL ZONE 12, Heating, 3854.39108, 4817.98885, 0.19617, 0.24521, SAN FRANCISCO INTL AP ANN HTG 99.6% CONDNS DB, 1/21 06:00:00, 3.80000, 4.96421E-003, 75.84221, 4.08179, 3.85278E-002
 Zone Sizing Information, THERMAL ZONE 13, Cooling, 2748.16973, 3160.39519, 0.15976, 0.18373, SAN FRANCISCO INTL AP ANN CLG .4% CONDNS DB=>MWB, 8/21 15:30:00, 28.04500, 7.71373E-003, 75.84221, 4.08179, 3.85278E-002
 Zone Sizing Information, THERMAL ZONE 13, Heating, 2912.02578, 3640.03223, 0.14822, 0.18527, SAN FRANCISCO INTL AP ANN HTG 99.6% CONDNS DB, 1/21 06:00:00, 3.80000, 4.96421E-003, 75.84221, 4.08179, 3.85278E-002
! <System Sizing Information>, System Name, Field Description, Value
 System Sizing Information, AIR LOOP HVAC 1, Calculated Cooling Design Air Flow Rate [m3/s], 11.47261
 System Sizing Information, AIR LOOP HVAC 1, User Cooling Design Air Flow Rate [m3/s], 11.47261
 System Sizing Information, AIR LOOP HVAC 1, Calculated Heating Design Air Flow Rate [m3/s], 5.58916
 System Sizing Information, AIR LOOP HVAC 1, User Heating Design Air Flow Rate [m3/s], 5.58916
! <Component Sizing Information>, Component Type, Component Name, Input Field Description, Value
 Component Sizing Information, AirTerminal:SingleDuct:VAV:Reheat, AIR TERMINAL SINGLE DUCT VAV REHEAT 2, Maximum Air Flow Rate [m3/s], 0.31891
 Component Sizing Information, AirTerminal:SingleDuct:VAV:Reheat, AIR TERMINAL SINGLE DUCT VAV REHEAT 2, Maximum Flow per Zone Floor Area during Reheat [m3/s-m2], 2.03200E-003
 Component Sizing Information, AirTerminal:SingleDuct:VAV:Reheat, AIR TERMINAL SINGLE DUCT VAV REHEAT 2, Maximum Flow Fraction during Reheat [], 0.48325
 Component Sizing Information, AirTerminal:SingleDuct:VAV:Reheat, AIR TERMINAL SINGLE DUCT VAV REHEAT 2, Maximum Reheat Water Flow Rate [m3/s], 1.61688E-004
 Component Sizing Information, AirTerminal:SingleDuct:VAV:Reheat, AIR TERMINAL SINGLE DUCT VAV REHEAT 2, Reheat Coil Sizing Air Volume Flow Rate [m3/s], 0.21914
 Component Sizing Information, Coil:Heating:Water, COIL HEATING WATER 3, Maximum Water Flow Rate [m3/s], 1.61688E-004
 Component Sizing Information, Coil:Heating:Water, COIL HEATING WATER 3, Design Coil Load [W], 7442.55543
 Component Sizing Information, Coil:Heating:Water, COIL HEATING WATER 3, U-Factor Times Area Value [W/K], 226.83282
! <Water Heating Coil Capacity Information>,Component Type,Name,Nominal Total Capacity {W}
Water Heating Coil Capacity Information,Coil:Heating:Water,COIL HEATING WATER 3,8983.37
 Component Sizing Information, AirTerminal:SingleDuct:VAV:Reheat, AIR TERMINAL SINGLE DUCT VAV REHEAT 22, Maximum Air Flow Rate [m3/s], 0.51989
 Component Sizing Information, AirTerminal:SingleDuct:VAV:Reheat, AIR TERMINAL SINGLE DUCT VAV REHEAT 22, Maximum Flow per Zone Floor Area during Reheat [m3/s-m2], 2.05647E-003
 Component Sizing Information, AirTerminal:SingleDuct:VAV:Reheat, AIR TERMINAL SINGLE DUCT VAV REHEAT 22, Maximum Flow Fraction during Reheat [], 0.30000
 Component Sizing Information, AirTerminal:SingleDuct:VAV:Reheat, AIR TERMINAL SINGLE DUCT VAV REHEAT 22, Maximum Reheat Water Flow Rate [m3/s], 1.38213E-004
 Component Sizing Information, AirTerminal:SingleDuct:VAV:Reheat, AIR TERMINAL SINGLE DUCT VAV REHEAT 22, Reheat Coil Sizing Air Volume Flow Rate [m3/s], 0.18733
 Component Sizing Information, Coil:Heating:Water, COIL HEATING WATER 23, Maximum Water Flow Rate [m3/s], 1.38213E-004
 Component Sizing Information, Coil:Heating:Water, COIL HEATING WATER 23, Design Coil Load [W], 6361.96691
 Component Sizing Information, Coil:Heating:Water, COIL HEATING WATER 23, U-Factor Times Area Value [W/K], 369.79148
Water Heating Coil Capacity Information,Coil:Heating:Water,COIL HEATING WATER 23,10629.47
 Component Sizing Information, AirTerminal:SingleDuct:VAV:Reheat, AIR TERMINAL SINGLE DUCT VAV REHEAT 25, Maximum Air Flow Rate [m3/s], 0.21933
 Component Sizing Information, AirTerminal:SingleDuct:VAV:Reheat, AIR TERMINAL SINGLE DUCT VAV REHEAT 25, Maximum Flow per Zone Floor Area during Reheat [m3/s-m2], 2.03200E-003
 Component Sizing Information, AirTerminal:SingleDuct:VAV:Reheat, AIR TERMINAL SINGLE DUCT VAV REHEAT 25, Maximum Flow Fraction during Reheat [], 0.70266
 Component Sizing Information, AirTerminal:SingleDuct:VAV:Reheat, AIR TERMINAL SINGLE DUCT VAV REHEAT 25, Maximum Reheat Water Flow Rate [m3/s], 1.61824E-004
 Component Sizing Information, AirTerminal:SingleDuct:VAV:Reheat, AIR TERMINAL SINGLE DUCT VAV REHEAT 25, Reheat Coil Sizing Air Volume Flow Rate [m3/s], 0.21933
 Component Sizing Information, Coil:Heating:Water, COIL HEATING WATER 26, Maximum Water Flow Rate [m3/s], 1.61824E-004
 Component Sizing Information, Coil:Heating:Water, COIL HEATING WATER 26, Design Coil Load [W], 7448.79669
 Component Sizing Information, Coil:Heating:Water, COIL HEATING WATER 26, U-Factor Times Area Value [W/K], 156.00372
Water Heating Coil Capacity Information,Coil:Heating:Water,COIL HEATING WATER 26,7056.01
 Component Sizing Information, AirTerminal:SingleDuct:VAV:Reheat, AIR TERMINAL SINGLE DUCT VAV REHEAT 7, Maximum Air Flow Rate [m3/s], 0.18733
 Component Sizing Information, AirTerminal:SingleDuct:VAV:Reheat, AIR TERMINAL SINGLE DUCT VAV REHEAT 7, Maximum Flow per Zone Floor Area during Reheat [m3/s-m2], 2.03200E-003
 Component Sizing Information, AirTerminal:SingleDuct:VAV:Reheat, AIR TERMINAL SINGLE DUCT VAV REHEAT 7, Maximum Flow Fraction during Reheat [], 0.82269
 Component Sizing Information, AirTerminal:SingleDuct:VAV:Reheat, AIR TERMINAL SINGLE DUCT VAV REHEAT 7, Maximum Reheat Water Flow Rate [m3/s], 1.38213E-004
 Component Sizing Information, AirTerminal:SingleDuct:VAV:Reheat, AIR TERMINAL SINGLE DUCT VAV REHEAT 7, Reheat Coil Sizing Air Volume Flow Rate [m3/s], 0.18733
 Component Sizing Information, Coil:Heating:Water, COIL HEATING WATER 8, Maximum Water Flow Rate [m3/s], 1.38213E-004
 Component Sizing Information, Coil:Heating:Water, COIL HEATING WATER 8, Design Coil Load [W], 6361.96691
 Component Sizing Information, Coil:Heating:Water, COIL HEATING WATER 8, U-Factor Times Area Value [W/K], 133.24172
Water Heating Coil Capacity Information,Coil:Heating:Water,COIL HEATING WATER 8,6026.49
 Component Sizing Information, AirTerminal:SingleDuct:VAV:Reheat, AIR TERMINAL SINGLE DUCT VAV REHEAT 12, Maximum Air Flow Rate [m3/s], 0.42185
 Component Sizing Information, AirTerminal:SingleDuct:VAV:Reheat, AIR TERMINAL SINGLE DUCT VAV REHEAT 12, Maximum Flow per Zone Floor Area during Reheat [m3/s-m2], 8.49757E-004
 Component Sizing Information, AirTerminal:SingleDuct:VAV:Reheat, AIR TERMINAL SINGLE DUCT VAV REHEAT 12, Maximum Flow Fraction during Reheat [], 1.00000
 Component Sizing Information, AirTerminal:SingleDuct:VAV:Reheat, AIR TERMINAL SINGLE DUCT VAV REHEAT 12, Maximum Reheat Water Flow Rate [m3/s], 2.20727E-004
 Component Sizing Information, AirTerminal:SingleDuct:VAV:Reheat, AIR TERMINAL SINGLE DUCT VAV REHEAT 12, Reheat Coil Sizing Air Volume Flow Rate [m3/s], 0.29916
 Component Sizing Information, Coil:Heating:Water, COIL HEATING WATER 13, Maximum Water Flow Rate [m3/s], 2.20727E-004
 Component Sizing Information, Coil:Heating:Water, COIL HEATING WATER 13, Design Coil Load [W], 10160.12403
 Component Sizing Information, Coil:Heating:Water, COIL HEATING WATER 13, U-Factor Times Area Value [W/K], 300.05283
Water Heating Coil Capacity Information,Coil:Heating:Water,COIL HEATING WATER 13,12033.21
 Component Sizing Information, AirTerminal:SingleDuct:VAV:Reheat, AIR TERMINAL SINGLE DUCT VAV REHEAT 26, Maximum Air Flow Rate [m3/s], 0.24521
 Component Sizing Information, AirTerminal:SingleDuct:VAV:Reheat, AIR TERMINAL SINGLE DUCT VAV REHEAT 26, Maximum Flow per Zone Floor Area during Reheat [m3/s-m2], 2.03200E-003
 Component Sizing Information, AirTerminal:SingleDuct:VAV:Reheat, AIR TERMINAL SINGLE DUCT VAV REHEAT 26, Maximum Flow Fraction during Reheat [], 0.62848
 Component Sizing Information, AirTerminal:SingleDuct:VAV:Reheat, AIR TERMINAL SINGLE DUCT VAV REHEAT 26, Maximum Reheat Water Flow Rate [m3/s], 1.80923E-004
 Component Sizing Information, AirTerminal:SingleDuct:VAV:Reheat, AIR TERMINAL SINGLE DUCT VAV REHEAT 26, Reheat Coil Sizing Air Volume Flow Rate [m3/s], 0.24521
 Component Sizing Information, Coil:Heating:Water, COIL HEATING WATER 27, Maximum Water Flow Rate [m3/s], 1.80923E-004
 Component Sizing Information, Coil:Heating:Water, COIL HEATING WATER 27, Design Coil Load [W], 8327.94918
 Component Sizing Information, Coil:Heating:Water, COIL HEATING WATER 27, U-Factor Times Area Value [W/K], 174.41623
Water Heating Coil Capacity Information,Coil:Heating:Water,COIL HEATING WATER 27,7888.80
 Component Sizing Information, AirTerminal:SingleDuct:VAV:Reheat, AIR TERMINAL SINGLE DUCT VAV REHEAT 24, Maximum Air Flow Rate [m3/s], 0.46405
 Component Sizing Information, AirTerminal:SingleDuct:VAV:Reheat, AIR TERMINAL SINGLE DUCT VAV REHEAT 24, Maximum Flow per Zone Floor Area during Reheat [m3/s-m2], 2.03200E-003
 Component Sizing Information, AirTerminal:SingleDuct:VAV:Reheat, AIR TERMINAL SINGLE DUCT VAV REHEAT 24, Maximum Flow Fraction during Reheat [], 0.33210
 Component Sizing Information, AirTerminal:SingleDuct:VAV:Reheat, AIR TERMINAL SINGLE DUCT VAV REHEAT 24, Maximum Reheat Water Flow Rate [m3/s], 1.38129E-004
 Component Sizing Information, AirTerminal:SingleDuct:VAV:Reheat, AIR TERMINAL SINGLE DUCT VAV REHEAT 24, Reheat Coil Sizing Air Volume Flow Rate [m3/s], 0.18721
 Component Sizing Information, Coil:Heating:Water, COIL HEATING WATER 25, Maximum Water Flow Rate [m3/s], 1.38129E-004
 Component Sizing Information, Coil:Heating:Water, COIL HEATING WATER 25, Design Coil Load [W], 6358.11047
 Component Sizing Information, Coil:Heating:Water, COIL HEATING WATER 25, U-Factor Times Area Value [W/K], 330.06911
Water Heating Coil Capacity Information,Coil:Heating:Water,COIL HEATING WATER 25,10126.94
 Component Sizing Information, AirTerminal:SingleDuct:VAV:Reheat, AIR TERMINAL SINGLE DUCT VAV REHEAT 6, Maximum Air Flow Rate [m3/s], 0.43924
 Component Sizing Information, AirTerminal:SingleDuct:VAV:Reheat, AIR TERMINAL SINGLE DUCT VAV REHEAT 6, Maximum Flow per Zone Floor Area during Reheat [m3/s-m2], 2.03200E-003
 Component Sizing Information, AirTerminal:SingleDuct:VAV:Reheat, AIR TERMINAL SINGLE DUCT VAV REHEAT 6, Maximum Flow Fraction during Reheat [], 0.35086
 Component Sizing Information, AirTerminal:SingleDuct:VAV:Reheat, AIR TERMINAL SINGLE DUCT VAV REHEAT 6, Maximum Reheat Water Flow Rate [m3/s], 1.81143E-004
 Component Sizing Information, AirTerminal:SingleDuct:VAV:Reheat, AIR TERMINAL SINGLE DUCT VAV REHEAT 6, Reheat Coil Sizing Air Volume Flow Rate [m3/s], 0.24551
 Component Sizing Information, Coil:Heating:Water, COIL HEATING WATER 7, Maximum Water Flow Rate [m3/s], 1.81143E-004
 Component Sizing Information, Coil:Heating:Water, COIL HEATING WATER 7, Design Coil Load [W], 8338.07304
 Component Sizing Information, Coil:Heating:Water, COIL HEATING WATER 7, U-Factor Times Area Value [W/K], 312.42724
Water Heating Coil Capacity Information,Coil:Heating:Water,COIL HEATING WATER 7,11318.44
 Component Sizing Information, AirTerminal:SingleDuct:VAV:Reheat, AIR TERMINAL SINGLE DUCT VAV REHEAT 10, Maximum Air Flow Rate [m3/s], 0.87693
 Component Sizing Information, AirTerminal:SingleDuct:VAV:Reheat, AIR TERMINAL SINGLE DUCT VAV REHEAT 10, Maximum Flow per Zone Floor Area during Reheat [m3/s-m2], 1.76646E-003
 Component Sizing Information, AirTerminal:SingleDuct:VAV:Reheat, AIR TERMINAL SINGLE DUCT VAV REHEAT 10, Maximum Flow Fraction during Reheat [], 1.00000
 Component Sizing Information, AirTerminal:SingleDuct:VAV:Reheat, AIR TERMINAL SINGLE DUCT VAV REHEAT 10, Maximum Reheat Water Flow Rate [m3/s], 1.94105E-004
 Component Sizing Information, AirTerminal:SingleDuct:VAV:Reheat, AIR TERMINAL SINGLE DUCT VAV REHEAT 10, Reheat Coil Sizing Air Volume Flow Rate [m3/s], 0.26308
 Component Sizing Information, Coil:Heating:Water, COIL HEATING WATER 11, Maximum Water Flow Rate [m3/s], 1.94105E-004
 Component Sizing Information, Coil:Heating:Water, COIL HEATING WATER 11, Design Coil Load [W], 8934.69971
 Component Sizing Information, Coil:Heating:Water, COIL HEATING WATER 11, U-Factor Times Area Value [W/K], 623.74566
Water Heating Coil Capacity Information,Coil:Heating:Water,COIL HEATING WATER 11,15996.05
 Component Sizing Information, AirTerminal:SingleDuct:VAV:Reheat, AIR TERMINAL SINGLE DUCT VAV REHEAT 21, Maximum Air Flow Rate [m3/s], 0.86615
 Component Sizing Information, AirTerminal:SingleDuct:VAV:Reheat, AIR TERMINAL SINGLE DUCT VAV REHEAT 21, Maximum Flow per Zone Floor Area during Reheat [m3/s-m2], 1.74475E-003
 Component Sizing Information, AirTerminal:SingleDuct:VAV:Reheat, AIR TERMINAL SINGLE DUCT VAV REHEAT 21, Maximum Flow Fraction during Reheat [], 1.00000
 Component Sizing Information, AirTerminal:SingleDuct:VAV:Reheat, AIR TERMINAL SINGLE DUCT VAV REHEAT 21, Maximum Reheat Water Flow Rate [m3/s], 1.91719E-004
 Component Sizing Information, AirTerminal:SingleDuct:VAV:Reheat, AIR TERMINAL SINGLE DUCT VAV REHEAT 21, Reheat Coil Sizing Air Volume Flow Rate [m3/s], 0.25985
 Component Sizing Information, Coil:Heating:Water, COIL HEATING WATER 22, Maximum Water Flow Rate [m3/s], 1.91719E-004
 Component Sizing Information, Coil:Heating:Water, COIL HEATING WATER 22, Design Coil Load [W], 8824.89773
 Component Sizing Information, Coil:Heating:Water, COIL HEATING WATER 22, U-Factor Times Area Value [W/K], 616.08021
Water Heating Coil Capacity Information,Coil:Heating:Water,COIL HEATING WATER 22,15799.47
 Component Sizing Information, AirTerminal:SingleDuct:VAV:Reheat, AIR TERMINAL SINGLE DUCT VAV REHEAT 13, Maximum Air Flow Rate [m3/s], 0.81162
 Component Sizing Information, AirTerminal:SingleDuct:VAV:Reheat, AIR TERMINAL SINGLE DUCT VAV REHEAT 13, Maximum Flow per Zone Floor Area during Reheat [m3/s-m2], 1.63491E-003
 Component Sizing Information, AirTerminal:SingleDuct:VAV:Reheat, AIR TERMINAL SINGLE DUCT VAV REHEAT 13, Maximum Flow Fraction during Reheat [], 1.00000
 Component Sizing Information, AirTerminal:SingleDuct:VAV:Reheat, AIR TERMINAL SINGLE DUCT VAV REHEAT 13, Maximum Reheat Water Flow Rate [m3/s], 1.79650E-004
 Component Sizing Information, AirTerminal:SingleDuct:VAV:Reheat, AIR TERMINAL SINGLE DUCT VAV REHEAT 13, Reheat Coil Sizing Air Volume Flow Rate [m3/s], 0.24349
 Component Sizing Information, Coil:Heating:Water, COIL HEATING WATER 14, Maximum Water Flow Rate [m3/s], 1.79650E-004
 Component Sizing Information, Coil:Heating:Water, COIL HEATING WATER 14, Design Coil Load [W], 8269.32809
 Component Sizing Information, Coil:Heating:Water, COIL HEATING WATER 14, U-Factor Times Area Value [W/K], 577.29501
Water Heating Coil Capacity Information,Coil:Heating:Water,COIL HEATING WATER 14,14804.82
 Component Sizing Information, AirTerminal:SingleDuct:VAV:Reheat, AIR TERMINAL SINGLE DUCT VAV REHEAT 4, Maximum Air Flow Rate [m3/s], 0.53020
 Component Sizing Information, AirTerminal:SingleDuct:VAV:Reheat, AIR TERMINAL SINGLE DUCT VAV REHEAT 4, Maximum Flow per Zone Floor Area during Reheat [m3/s-m2], 2.09725E-003
 Component Sizing Information, AirTerminal:SingleDuct:VAV:Reheat, AIR TERMINAL SINGLE DUCT VAV REHEAT 4, Maximum Flow Fraction during Reheat [], 0.30000
 Component Sizing Information, AirTerminal:SingleDuct:VAV:Reheat, AIR TERMINAL SINGLE DUCT VAV REHEAT 4, Maximum Reheat Water Flow Rate [m3/s], 1.36699E-004
 Component Sizing Information, AirTerminal:SingleDuct:VAV:Reheat, AIR TERMINAL SINGLE DUCT VAV REHEAT 4, Reheat Coil Sizing Air Volume Flow Rate [m3/s], 0.18527
 Component Sizing Information, Coil:Heating:Water, COIL HEATING WATER 5, Maximum Water Flow Rate [m3/s], 1.36699E-004
 Component Sizing Information, Coil:Heating:Water, COIL HEATING WATER 5, Design Coil Load [W], 6292.28873
 Component Sizing Information, Coil:Heating:Water, COIL HEATING WATER 5, U-Factor Times Area Value [W/K], 377.12331
Water Heating Coil Capacity Information,Coil:Heating:Water,COIL HEATING WATER 5,10642.98
 Component Sizing Information, AirTerminal:SingleDuct:VAV:Reheat, AIR TERMINAL SINGLE DUCT VAV REHEAT 9, Maximum Air Flow Rate [m3/s], 0.45200
 Component Sizing Information, AirTerminal:SingleDuct:VAV:Reheat, AIR TERMINAL SINGLE DUCT VAV REHEAT 9, Maximum Flow per Zone Floor Area during Reheat [m3/s-m2], 2.03200E-003
 Component Sizing Information, AirTerminal:SingleDuct:VAV:Reheat, AIR TERMINAL SINGLE DUCT VAV REHEAT 9, Maximum Flow Fraction during Reheat [], 0.34096
 Component Sizing Information, AirTerminal:SingleDuct:VAV:Reheat, AIR TERMINAL SINGLE DUCT VAV REHEAT 9, Maximum Reheat Water Flow Rate [m3/s], 1.36807E-004
 Component Sizing Information, AirTerminal:SingleDuct:VAV:Reheat, AIR TERMINAL SINGLE DUCT VAV REHEAT 9, Reheat Coil Sizing Air Volume Flow Rate [m3/s], 0.18542
 Component Sizing Information, Coil:Heating:Water, COIL HEATING WATER 10, Maximum Water Flow Rate [m3/s], 1.36807E-004
 Component Sizing Information, Coil:Heating:Water, COIL HEATING WATER 10, Design Coil Load [W], 6297.26755
 Component Sizing Information, Coil:Heating:Water, COIL HEATING WATER 10, U-Factor Times Area Value [W/K], 321.49852
Water Heating Coil Capacity Information,Coil:Heating:Water,COIL HEATING WATER 10,9956.10
 Component Sizing Information, AirTerminal:SingleDuct:VAV:Reheat, AIR TERMINAL SINGLE DUCT VAV REHEAT 11, Maximum Air Flow Rate [m3/s], 0.45125
 Component Sizing Information, AirTerminal:SingleDuct:VAV:Reheat, AIR TERMINAL SINGLE DUCT VAV REHEAT 11, Maximum Flow per Zone Floor Area during Reheat [m3/s-m2], 2.03200E-003
 Component Sizing Information, AirTerminal:SingleDuct:VAV:Reheat, AIR TERMINAL SINGLE DUCT VAV REHEAT 11, Maximum Flow Fraction during Reheat [], 0.34152
 Component Sizing Information, AirTerminal:SingleDuct:VAV:Reheat, AIR TERMINAL SINGLE DUCT VAV REHEAT 11, Maximum Reheat Water Flow Rate [m3/s], 1.38224E-004
 Component Sizing Information, AirTerminal:SingleDuct:VAV:Reheat, AIR TERMINAL SINGLE DUCT VAV REHEAT 11, Reheat Coil Sizing Air Volume Flow Rate [m3/s], 0.18734
 Component Sizing Information, Coil:Heating:Water, COIL HEATING WATER 12, Maximum Water Flow Rate [m3/s], 1.38224E-004
 Component Sizing Information, Coil:Heating:Water, COIL HEATING WATER 12, Design Coil Load [W], 6362.50877
 Component Sizing Information, Coil:Heating:Water, COIL HEATING WATER 12, U-Factor Times Area Value [W/K], 320.97003
Water Heating Coil Capacity Information,Coil:Heating:Water,COIL HEATING WATER 12,10005.58
 Component Sizing Information, AirTerminal:SingleDuct:VAV:Reheat, AIR TERMINAL SINGLE DUCT VAV REHEAT 16, Maximum Air Flow Rate [m3/s], 0.44801
 Component Sizing Information, AirTerminal:SingleDuct:VAV:Reheat, AIR TERMINAL SINGLE DUCT VAV REHEAT 16, Maximum Flow per Zone Floor Area during Reheat [m3/s-m2], 2.03200E-003
 Component Sizing Information, AirTerminal:SingleDuct:VAV:Reheat, AIR TERMINAL SINGLE DUCT VAV REHEAT 16, Maximum Flow Fraction during Reheat [], 0.34399
 Component Sizing Information, AirTerminal:SingleDuct:VAV:Reheat, AIR TERMINAL SINGLE DUCT VAV REHEAT 16, Maximum Reheat Water Flow Rate [m3/s], 1.81143E-004
 Component Sizing Information, AirTerminal:SingleDuct:VAV:Reheat, AIR TERMINAL SINGLE DUCT VAV REHEAT 16, Reheat Coil Sizing Air Volume Flow Rate [m3/s], 0.24551
 Component Sizing Information, Coil:Heating:Water, COIL HEATING WATER 17, Maximum Water Flow Rate [m3/s], 1.81143E-004
 Component Sizing Information, Coil:Heating:Water, COIL HEATING WATER 17, Design Coil Load [W], 8338.07304
 Component Sizing Information, Coil:Heating:Water, COIL HEATING WATER 17, U-Factor Times Area Value [W/K], 318.66154
Water Heating Coil Capacity Information,Coil:Heating:Water,COIL HEATING WATER 17,11439.00
 Component Sizing Information, AirTerminal:SingleDuct:VAV:Reheat, AIR TERMINAL SINGLE DUCT VAV REHEAT 19, Maximum Air Flow Rate [m3/s], 0.41175
 Component Sizing Information, AirTerminal:SingleDuct:VAV:Reheat, AIR TERMINAL SINGLE DUCT VAV REHEAT 19, Maximum Flow per Zone Floor Area during Reheat [m3/s-m2], 2.03200E-003
 Component Sizing Information, AirTerminal:SingleDuct:VAV:Reheat, AIR TERMINAL SINGLE DUCT VAV REHEAT 19, Maximum Flow Fraction during Reheat [], 0.37428
 Component Sizing Information, AirTerminal:SingleDuct:VAV:Reheat, AIR TERMINAL SINGLE DUCT VAV REHEAT 19, Maximum Reheat Water Flow Rate [m3/s], 1.61824E-004
 Component Sizing Information, AirTerminal:SingleDuct:VAV:Reheat, AIR TERMINAL SINGLE DUCT VAV REHEAT 19, Reheat Coil Sizing Air Volume Flow Rate [m3/s], 0.21933
 Component Sizing Information, Coil:Heating:Water, COIL HEATING WATER 20, Maximum Water Flow Rate [m3/s], 1.61824E-004
 Component Sizing Information, Coil:Heating:Water, COIL HEATING WATER 20, Design Coil Load [W], 7448.79669
 Component Sizing Information, Coil:Heating:Water, COIL HEATING WATER 20, U-Factor Times Area Value [W/K], 292.87471
Water Heating Coil Capacity Information,Coil:Heating:Water,COIL HEATING WATER 20,10373.70
 Component Sizing Information, AirTerminal:SingleDuct:VAV:Reheat, AIR TERMINAL SINGLE DUCT VAV REHEAT 20, Maximum Air Flow Rate [m3/s], 0.53046
 Component Sizing Information, AirTerminal:SingleDuct:VAV:Reheat, AIR TERMINAL SINGLE DUCT VAV REHEAT 20, Maximum Flow per Zone Floor Area during Reheat [m3/s-m2], 2.09827E-003
 Component Sizing Information, AirTerminal:SingleDuct:VAV:Reheat, AIR TERMINAL SINGLE DUCT VAV REHEAT 20, Maximum Flow Fraction during Reheat [], 0.30000
 Component Sizing Information, AirTerminal:SingleDuct:VAV:Reheat, AIR TERMINAL SINGLE DUCT VAV REHEAT 20, Maximum Reheat Water Flow Rate [m3/s], 1.37953E-004
 Component Sizing Information, AirTerminal:SingleDuct:VAV:Reheat, AIR TERMINAL SINGLE DUCT VAV REHEAT 20, Reheat Coil Sizing Air Volume Flow Rate [m3/s], 0.18697
 Component Sizing Information, Coil:Heating:Water, COIL HEATING WATER 21, Maximum Water Flow Rate [m3/s], 1.37953E-004
 Component Sizing Information, Coil:Heating:Water, COIL HEATING WATER 21, Design Coil Load [W], 6350.01349
 Component Sizing Information, Coil:Heating:Water, COIL HEATING WATER 21, U-Factor Times Area Value [W/K], 377.30637
Water Heating Coil Capacity Information,Coil:Heating:Water,COIL HEATING WATER 21,10703.77
 Component Sizing Information, AirTerminal:SingleDuct:VAV:Reheat, AIR TERMINAL SINGLE DUCT VAV REHEAT 3, Maximum Air Flow Rate [m3/s], 0.18697
 Component Sizing Information, AirTerminal:SingleDuct:VAV:Reheat, AIR TERMINAL SINGLE DUCT VAV REHEAT 3, Maximum Flow per Zone Floor Area during Reheat [m3/s-m2], 2.03200E-003
 Component Sizing Information, AirTerminal:SingleDuct:VAV:Reheat, AIR TERMINAL SINGLE DUCT VAV REHEAT 3, Maximum Flow Fraction during Reheat [], 0.82424
 Component Sizing Information, AirTerminal:SingleDuct:VAV:Reheat, AIR TERMINAL SINGLE DUCT VAV REHEAT 3, Maximum Reheat Water Flow Rate [m3/s], 1.37953E-004
 Component Sizing Information, AirTerminal:SingleDuct:VAV:Reheat, AIR TERMINAL SINGLE DUCT VAV REHEAT 3, Reheat Coil Sizing Air Volume Flow Rate [m3/s], 0.18697
 Component Sizing Information, Coil:Heating:Water, COIL HEATING WATER 4, Maximum Water Flow Rate [m3/s], 1.37953E-004
 Component Sizing Information, Coil:Heating:Water, COIL HEATING WATER 4, Design Coil Load [W], 6350.01349
 Component Sizing Information, Coil:Heating:Water, COIL HEATING WATER 4, U-Factor Times Area Value [W/K], 132.99138
Water Heating Coil Capacity Information,Coil:Heating:Water,COIL HEATING WATER 4,6015.16
 Component Sizing Information, AirTerminal:SingleDuct:VAV:Reheat, AIR TERMINAL SINGLE DUCT VAV REHEAT 15, Maximum Air Flow Rate [m3/s], 0.34940
 Component Sizing Information, AirTerminal:SingleDuct:VAV:Reheat, AIR TERMINAL SINGLE DUCT VAV REHEAT 15, Maximum Flow per Zone Floor Area during Reheat [m3/s-m2], 2.03200E-003
 Component Sizing Information, AirTerminal:SingleDuct:VAV:Reheat, AIR TERMINAL SINGLE DUCT VAV REHEAT 15, Maximum Flow Fraction during Reheat [], 0.44107
 Component Sizing Information, AirTerminal:SingleDuct:VAV:Reheat, AIR TERMINAL SINGLE DUCT VAV REHEAT 15, Maximum Reheat Water Flow Rate [m3/s], 1.61688E-004
 Component Sizing Information, AirTerminal:SingleDuct:VAV:Reheat, AIR TERMINAL SINGLE DUCT VAV REHEAT 15, Reheat Coil Sizing Air Volume Flow Rate [m3/s], 0.21914
 Component Sizing Information, Coil:Heating:Water, COIL HEATING WATER 16, Maximum Water Flow Rate [m3/s], 1.61688E-004
 Component Sizing Information, Coil:Heating:Water, COIL HEATING WATER 16, Design Coil Load [W], 7442.55543
 Component Sizing Information, Coil:Heating:Water, COIL HEATING WATER 16, U-Factor Times Area Value [W/K], 248.52375
Water Heating Coil Capacity Information,Coil:Heating:Water,COIL HEATING WATER 16,9476.24
 Component Sizing Information, AirTerminal:SingleDuct:VAV:Reheat, AIR TERMINAL SINGLE DUCT VAV REHEAT 8, Maximum Air Flow Rate [m3/s], 0.45247
 Component Sizing Information, AirTerminal:SingleDuct:VAV:Reheat, AIR TERMINAL SINGLE DUCT VAV REHEAT 8, Maximum Flow per Zone Floor Area during Reheat [m3/s-m2], 2.03200E-003
 Component Sizing Information, AirTerminal:SingleDuct:VAV:Reheat, AIR TERMINAL SINGLE DUCT VAV REHEAT 8, Maximum Flow Fraction during Reheat [], 0.34060
 Component Sizing Information, AirTerminal:SingleDuct:VAV:Reheat, AIR TERMINAL SINGLE DUCT VAV REHEAT 8, Maximum Reheat Water Flow Rate [m3/s], 1.38129E-004
 Component Sizing Information, AirTerminal:SingleDuct:VAV:Reheat, AIR TERMINAL SINGLE DUCT VAV REHEAT 8, Reheat Coil Sizing Air Volume Flow Rate [m3/s], 0.18721
 Component Sizing Information, Coil:Heating:Water, COIL HEATING WATER 9, Maximum Water Flow Rate [m3/s], 1.38129E-004
 Component Sizing Information, Coil:Heating:Water, COIL HEATING WATER 9, Design Coil Load [W], 6358.11047
[...]
 Warmup Convergence Information,THERMAL ZONE 14,SizingPeriod: SAN FRANCISCO INTL AP ANN HTG WIND 99% CONDNS WS=>MCDB,1.1714255165E-003,1.2161393357E-003,Pass,Pass,7.0142403141E-003,3.4201029568E-002,Pass,Pass
 Warmup Convergence Information,THERMAL ZONE 21,SizingPeriod: SAN FRANCISCO INTL AP ANN HTG WIND 99% CONDNS WS=>MCDB,1.3881972166E-005,4.6867637863E-005,Pass,Pass,2.1944468370E-005,9.0570860802E-005,Pass,Pass
 Warmup Convergence Information,THERMAL ZONE 8,SizingPeriod: SAN FRANCISCO INTL AP ANN HTG WIND 99% CONDNS WS=>MCDB,2.8826892687E-005,9.9462843122E-005,Pass,Pass,6.9873896954E-003,4.8438986747E-002,Pass,Pass
 Warmup Convergence Information,THERMAL ZONE 11,SizingPeriod: SAN FRANCISCO INTL AP ANN HTG WIND 99% CONDNS WS=>MCDB,2.8334372121E-003,1.6361439708E-003,Pass,Pass,9.5234315770E-003,3.4157771323E-002,Pass,Pass
 Warmup Convergence Information,THERMAL ZONE 22,SizingPeriod: SAN FRANCISCO INTL AP ANN HTG WIND 99% CONDNS WS=>MCDB,4.2284725121E-003,1.7865131765E-003,Pass,Pass,1.3791591115E-002,4.7788910831E-002,Pass,Pass
 Warmup Convergence Information,THERMAL ZONE 1,SizingPeriod: SAN FRANCISCO INTL AP ANN HTG WIND 99% CONDNS WS=>MCDB,1.8483252932E-005,5.0162336966E-005,Pass,Pass,1.1365154034E-004,4.6394900559E-004,Pass,Pass
 Warmup Convergence Information,THERMAL ZONE 16,SizingPeriod: SAN FRANCISCO INTL AP ANN HTG WIND 99% CONDNS WS=>MCDB,1.5391692094E-004,3.9086837428E-004,Pass,Pass,1.1014081869E-003,3.9021582281E-003,Pass,Pass
 Warmup Convergence Information,THERMAL ZONE 5,SizingPeriod: SAN FRANCISCO INTL AP ANN HTG WIND 99% CONDNS WS=>MCDB,9.1270161514E-004,6.4467788862E-004,Pass,Pass,1.2763857559E-002,7.1870816636E-003,Pass,Pass
 Warmup Convergence Information,THERMAL ZONE 7,SizingPeriod: SAN FRANCISCO INTL AP ANN HTG WIND 99% CONDNS WS=>MCDB,1.9852233595E-003,2.0166594091E-003,Pass,Pass,7.9261941306E-003,3.4671338641E-002,Pass,Pass
 Warmup Convergence Information,THERMAL ZONE 24,SizingPeriod: SAN FRANCISCO INTL AP ANN HTG WIND 99% CONDNS WS=>MCDB,1.7027920917E-003,1.6447081548E-003,Pass,Pass,8.7393230915E-003,3.5005003518E-002,Pass,Pass
 Warmup Convergence Information,THERMAL ZONE 10,SizingPeriod: SAN FRANCISCO INTL AP ANN HTG WIND 99% CONDNS WS=>MCDB,7.7884996421E-005,2.1620393933E-004,Pass,Pass,4.9397087569E-003,3.3999529987E-002,Pass,Pass
 Warmup Convergence Information,THERMAL ZONE 3,SizingPeriod: SAN FRANCISCO INTL AP ANN HTG WIND 99% CONDNS WS=>MCDB,2.5724798656E-003,8.1938581810E-004,Pass,Pass,1.0351450163E-002,4.7723814257E-002,Pass,Pass
 Warmup Convergence Information,THERMAL ZONE 2,SizingPeriod: SAN FRANCISCO INTL AP ANN HTG WIND 99% CONDNS WS=>MCDB,3.8385191302E-003,4.0762657914E-004,Pass,Pass,9.1482492928E-003,2.4107436880E-002,Pass,Pass
 Warmup Convergence Information,THERMAL ZONE 4,SizingPeriod: SAN FRANCISCO INTL AP ANN HTG WIND 99% CONDNS WS=>MCDB,4.1253066841E-004,9.5221875897E-004,Pass,Pass,5.4694790778E-003,3.5515684642E-002,Pass,Pass
 Warmup Convergence Information,THERMAL ZONE 9,SizingPeriod: SAN FRANCISCO INTL AP ANN HTG WIND 99% CONDNS WS=>MCDB,1.1700431810E-003,1.3972263872E-003,Pass,Pass,6.6359732469E-003,3.5218899252E-002,Pass,Pass
 Warmup Convergence Information,THERMAL ZONE 25,SizingPeriod: SAN FRANCISCO INTL AP ANN HTG WIND 99% CONDNS WS=>MCDB,3.4897175852E-003,1.4258156789E-003,Pass,Pass,7.8250647809E-003,2.4269885635E-002,Pass,Pass
 Warmup Convergence Information,THERMAL ZONE 23,SizingPeriod: SAN FRANCISCO INTL AP ANN HTG WIND 99% CONDNS WS=>MCDB,1.3651356676E-003,1.3364227776E-003,Pass,Pass,7.4203656806E-003,3.4730673838E-002,Pass,Pass
 Warmup Convergence Information,THERMAL ZONE 15,SizingPeriod: SAN FRANCISCO INTL AP ANN HTG WIND 99% CONDNS WS=>MCDB,1.8091621684E-003,1.9996146605E-003,Pass,Pass,7.3252982159E-003,3.4086596917E-002,Pass,Pass
 Warmup Convergence Information,THERMAL ZONE 20,SizingPeriod: SAN FRANCISCO INTL AP ANN HTG WIND 99% CONDNS WS=>MCDB,1.6431609023E-003,1.8748633525E-003,Pass,Pass,6.9202458856E-003,3.5427198055E-002,Pass,Pass
 Warmup Convergence Information,THERMAL ZONE 6,SizingPeriod: SAN FRANCISCO INTL AP ANN HTG WIND 99% CONDNS WS=>MCDB,1.7605539714E-004,4.1934677076E-004,Pass,Pass,1.2466706834E-002,8.7132230831E-002,Pass,Pass
 Warmup Convergence Information,THERMAL ZONE 12,SizingPeriod: SAN FRANCISCO INTL AP ANN HTG WIND 99% CONDNS WS=>MCDB,1.2947720043E-003,1.2746506664E-003,Pass,Pass,8.7586128997E-003,4.8269649763E-002,Pass,Pass
 Warmup Convergence Information,THERMAL ZONE 13,SizingPeriod: SAN FRANCISCO INTL AP ANN HTG WIND 99% CONDNS WS=>MCDB,8.4622320055E-005,2.6979731595E-004,Pass,Pass,5.0919959460E-003,3.5077677758E-002,Pass,Pass
Environment,SAN FRANCISCO INTL AP ANN HUM_N 99% CONDNS DP=>MCDB,SizingPeriod:DesignDay,01/21,01/21,WinterDesignDay,1,N/A,N/A,N/A,N/A,N/A,N/A
Environment:Daylight Saving,No,SizingPeriod:DesignDay
Environment:Design Day Data,11.20,0.00,DefaultMultipliers,101301,150,2.2,0.00,No ,No 
Environment:Design_Day_Misc, 21,1229.0,0.1415,5.7310E-002,1.0,-11.15,-20.1,ASHRAEClearSky
Environment:WarmupDays,  6
 Warmup Convergence Information,THERMAL ZONE 18,SizingPeriod: SAN FRANCISCO INTL AP ANN HUM_N 99% CONDNS DP=>MCDB,3.6396520589E-003,2.3014130756E-003,Pass,Pass,8.0886207979E-003,2.5296010698E-002,Pass,Pass
 Warmup Convergence Information,THERMAL ZONE 19,SizingPeriod: SAN FRANCISCO INTL AP ANN HUM_N 99% CONDNS DP=>MCDB,1.8705434493E-003,2.0630943420E-003,Pass,Pass,6.8137884116E-003,3.4254798790E-002,Pass,Pass
 Warmup Convergence Information,THERMAL ZONE 17,SizingPeriod: SAN FRANCISCO INTL AP ANN HUM_N 99% CONDNS DP=>MCDB,4.2658167269E-003,1.5617767691E-003,Pass,Pass,7.7025575156E-003,2.4550065655E-002,Pass,Pass
 Warmup Convergence Information,THERMAL ZONE 14,SizingPeriod: SAN FRANCISCO INTL AP ANN HUM_N 99% CONDNS DP=>MCDB,1.8104068058E-003,1.7374343878E-003,Pass,Pass,7.7146486898E-003,3.3558801683E-002,Pass,Pass
 Warmup Convergence Information,THERMAL ZONE 21,SizingPeriod: SAN FRANCISCO INTL AP ANN HUM_N 99% CONDNS DP=>MCDB,2.3734380456E-005,8.4434438798E-005,Pass,Pass,3.6522543095E-005,1.6143967789E-004,Pass,Pass
 Warmup Convergence Information,THERMAL ZONE 8,SizingPeriod: SAN FRANCISCO INTL AP ANN HUM_N 99% CONDNS DP=>MCDB,6.9484578820E-005,2.8652355382E-004,Pass,Pass,6.7961745501E-003,4.6990970951E-002,Pass,Pass
 Warmup Convergence Information,THERMAL ZONE 11,SizingPeriod: SAN FRANCISCO INTL AP ANN HUM_N 99% CONDNS DP=>MCDB,2.6106021754E-003,1.3123384372E-003,Pass,Pass,9.1335880635E-003,3.4493297697E-002,Pass,Pass
 Warmup Convergence Information,THERMAL ZONE 22,SizingPeriod: SAN FRANCISCO INTL AP ANN HUM_N 99% CONDNS DP=>MCDB,3.2311568078E-003,1.1824784065E-003,Pass,Pass,1.0694577514E-002,4.6183447996E-002,Pass,Pass
 Warmup Convergence Information,THERMAL ZONE 1,SizingPeriod: SAN FRANCISCO INTL AP ANN HUM_N 99% CONDNS DP=>MCDB,3.5833869399E-004,6.1023332850E-004,Pass,Pass,6.5595108651E-003,1.1641808277E-002,Pass,Pass
 Warmup Convergence Information,THERMAL ZONE 16,SizingPeriod: SAN FRANCISCO INTL AP ANN HUM_N 99% CONDNS DP=>MCDB,5.1525865767E-005,1.8942930200E-004,Pass,Pass,3.4691502250E-004,1.7375379735E-003,Pass,Pass
 Warmup Convergence Information,THERMAL ZONE 5,SizingPeriod: SAN FRANCISCO INTL AP ANN HUM_N 99% CONDNS DP=>MCDB,1.0050234449E-003,7.3357647166E-004,Pass,Pass,1.4196922930E-002,5.0931148359E-003,Pass,Pass
 Warmup Convergence Information,THERMAL ZONE 7,SizingPeriod: SAN FRANCISCO INTL AP ANN HUM_N 99% CONDNS DP=>MCDB,1.6940424496E-003,2.1814023813E-003,Pass,Pass,6.5613962167E-003,3.4637930290E-002,Pass,Pass
 Warmup Convergence Information,THERMAL ZONE 24,SizingPeriod: SAN FRANCISCO INTL AP ANN HUM_N 99% CONDNS DP=>MCDB,1.8086468666E-003,1.9708858040E-003,Pass,Pass,7.2162530804E-003,3.4489502166E-002,Pass,Pass
 Warmup Convergence Information,THERMAL ZONE 10,SizingPeriod: SAN FRANCISCO INTL AP ANN HUM_N 99% CONDNS DP=>MCDB,1.5217953732E-003,1.4880199472E-003,Pass,Pass,7.8962199474E-003,3.3776586994E-002,Pass,Pass
 Warmup Convergence Information,THERMAL ZONE 3,SizingPeriod: SAN FRANCISCO INTL AP ANN HUM_N 99% CONDNS DP=>MCDB,6.7137868756E-005,2.5144715944E-004,Pass,Pass,6.7856132035E-003,4.6979278506E-002,Pass,Pass
 Warmup Convergence Information,THERMAL ZONE 2,SizingPeriod: SAN FRANCISCO INTL AP ANN HUM_N 99% CONDNS DP=>MCDB,4.0851688343E-003,1.2585009445E-003,Pass,Pass,7.9885911877E-003,2.5236320764E-002,Pass,Pass
 Warmup Convergence Information,THERMAL ZONE 4,SizingPeriod: SAN FRANCISCO INTL AP ANN HUM_N 99% CONDNS DP=>MCDB,2.4473572835E-003,2.1428152612E-003,Pass,Pass,8.6523818957E-003,3.3999015078E-002,Pass,Pass
 Warmup Convergence Information,THERMAL ZONE 9,SizingPeriod: SAN FRANCISCO INTL AP ANN HUM_N 99% CONDNS DP=>MCDB,1.4314422803E-003,1.6448601891E-003,Pass,Pass,7.4198300163E-003,3.3836829010E-002,Pass,Pass
 Warmup Convergence Information,THERMAL ZONE 25,SizingPeriod: SAN FRANCISCO INTL AP ANN HUM_N 99% CONDNS DP=>MCDB,3.2535875320E-003,9.6930189598E-004,Pass,Pass,7.2884016494E-003,2.4407116456E-002,Pass,Pass
 Warmup Convergence Information,THERMAL ZONE 23,SizingPeriod: SAN FRANCISCO INTL AP ANN HUM_N 99% CONDNS DP=>MCDB,2.4759269311E-003,1.3542018137E-003,Pass,Pass,8.8743557441E-003,3.4364036886E-002,Pass,Pass
 Warmup Convergence Information,THERMAL ZONE 15,SizingPeriod: SAN FRANCISCO INTL AP ANN HUM_N 99% CONDNS DP=>MCDB,3.3357008838E-003,1.7891772455E-003,Pass,Pass,9.6468399873E-003,3.3866398354E-002,Pass,Pass
 Warmup Convergence Information,THERMAL ZONE 20,SizingPeriod: SAN FRANCISCO INTL AP ANN HUM_N 99% CONDNS DP=>MCDB,4.2317949200E-003,1.2429401390E-003,Pass,Pass,1.1168372117E-002,3.4249339482E-002,Pass,Pass
 Warmup Convergence Information,THERMAL ZONE 6,SizingPeriod: SAN FRANCISCO INTL AP ANN HUM_N 99% CONDNS DP=>MCDB,1.2356029219E-003,1.7581354166E-004,Pass,Pass,1.7708147227E-002,7.8359445736E-002,Pass,Pass
 Warmup Convergence Information,THERMAL ZONE 12,SizingPeriod: SAN FRANCISCO INTL AP ANN HUM_N 99% CONDNS DP=>MCDB,1.4341970639E-003,1.6119460427E-003,Pass,Pass,8.3720111570E-003,4.6328318578E-002,Pass,Pass
 Warmup Convergence Information,THERMAL ZONE 13,SizingPeriod: SAN FRANCISCO INTL AP ANN HUM_N 99% CONDNS DP=>MCDB,1.0583627233E-003,1.1813296561E-003,Pass,Pass,6.7814249962E-003,3.5116543396E-002,Pass,Pass
Environment,SAN FRANCISCO INTL AP ANN CLG 2% CONDNS WB=>MDB,SizingPeriod:DesignDay,08/21,08/21,SummerDesignDay,1,N/A,N/A,N/A,N/A,N/A,N/A
Environment:Daylight Saving,No,SizingPeriod:DesignDay
Environment:Design Day Data,22.40,8.50,DefaultMultipliers,101301,310,5.9,0.00,No ,No 
Environment:Design_Day_Misc,233,1106.3,0.2000,0.1216,1.0,-3.33,12.4,ASHRAETau
Environment:WarmupDays,  6
 Warmup Convergence Information,THERMAL ZONE 18,SizingPeriod: SAN FRANCISCO INTL AP ANN CLG 2% CONDNS WB=>MDB,8.3767444246E-002,0.1419125154,Pass,Pass,7.4612320775E-002,0.1035184060,Pass,Pass
 Warmup Convergence Information,THERMAL ZONE 19,SizingPeriod: SAN FRANCISCO INTL AP ANN CLG 2% CONDNS WB=>MDB,8.3596503319E-002,0.1148478818,Pass,Pass,3.2824139303E-002,4.0895427131E-002,Pass,Pass
 Warmup Convergence Information,THERMAL ZONE 17,SizingPeriod: SAN FRANCISCO INTL AP ANN CLG 2% CONDNS WB=>MDB,6.9818572307E-002,7.4715301677E-002,Pass,Pass,4.9980213487E-002,8.5265621674E-002,Pass,Pass
 Warmup Convergence Information,THERMAL ZONE 14,SizingPeriod: SAN FRANCISCO INTL AP ANN CLG 2% CONDNS WB=>MDB,6.4637374607E-002,0.1057226152,Pass,Pass,1.6310946717E-002,1.5793843366E-002,Pass,Pass
 Warmup Convergence Information,THERMAL ZONE 21,SizingPeriod: SAN FRANCISCO INTL AP ANN CLG 2% CONDNS WB=>MDB,2.0223634209E-003,8.5171331606E-003,Pass,Pass,1.9195830646E-002,4.1997448185E-002,Pass,Pass
 Warmup Convergence Information,THERMAL ZONE 8,SizingPeriod: SAN FRANCISCO INTL AP ANN CLG 2% CONDNS WB=>MDB,8.3398067667E-002,0.1181870306,Pass,Pass,1.5073806924E-002,1.7791379039E-002,Pass,Pass
 Warmup Convergence Information,THERMAL ZONE 11,SizingPeriod: SAN FRANCISCO INTL AP ANN CLG 2% CONDNS WB=>MDB,8.3532667307E-002,0.1546539779,Pass,Pass,2.9792515390E-002,3.1627435880E-002,Pass,Pass
 Warmup Convergence Information,THERMAL ZONE 22,SizingPeriod: SAN FRANCISCO INTL AP ANN CLG 2% CONDNS WB=>MDB,8.3522199110E-002,0.1217028308,Pass,Pass,3.4617563977E-002,4.7287363843E-002,Pass,Pass
 Warmup Convergence Information,THERMAL ZONE 1,SizingPeriod: SAN FRANCISCO INTL AP ANN CLG 2% CONDNS WB=>MDB,1.8383821844E-004,3.8666080196E-004,Pass,Pass,4.2304492050E-003,1.1636842923E-002,Pass,Pass
 Warmup Convergence Information,THERMAL ZONE 16,SizingPeriod: SAN FRANCISCO INTL AP ANN CLG 2% CONDNS WB=>MDB,1.8439357351E-004,3.8709498513E-004,Pass,Pass,4.2839850448E-003,1.1719880918E-002,Pass,Pass
 Warmup Convergence Information,THERMAL ZONE 5,SizingPeriod: SAN FRANCISCO INTL AP ANN CLG 2% CONDNS WB=>MDB,1.7493847479E-004,3.7220852340E-004,Pass,Pass,5.2381667883E-003,1.2575791843E-002,Pass,Pass
 Warmup Convergence Information,THERMAL ZONE 7,SizingPeriod: SAN FRANCISCO INTL AP ANN CLG 2% CONDNS WB=>MDB,8.3573701019E-002,0.1071337968,Pass,Pass,3.0569576544E-002,3.9592978449E-002,Pass,Pass
 Warmup Convergence Information,THERMAL ZONE 24,SizingPeriod: SAN FRANCISCO INTL AP ANN CLG 2% CONDNS WB=>MDB,8.3530621767E-002,0.1112580147,Pass,Pass,2.8615665601E-002,3.2377506543E-002,Pass,Pass
 Warmup Convergence Information,THERMAL ZONE 10,SizingPeriod: SAN FRANCISCO INTL AP ANN CLG 2% CONDNS WB=>MDB,8.3651251529E-002,0.1534109085,Pass,Pass,3.1835506733E-002,3.3911598900E-002,Pass,Pass
 Warmup Convergence Information,THERMAL ZONE 3,SizingPeriod: SAN FRANCISCO INTL AP ANN CLG 2% CONDNS WB=>MDB,8.3711678852E-002,0.1556668112,Pass,Pass,3.5317582001E-002,4.0575971932E-002,Pass,Pass
 Warmup Convergence Information,THERMAL ZONE 2,SizingPeriod: SAN FRANCISCO INTL AP ANN CLG 2% CONDNS WB=>MDB,8.3822189257E-002,0.1596488567,Pass,Pass,7.0645676934E-002,9.2512250785E-002,Pass,Pass
 Warmup Convergence Information,THERMAL ZONE 4,SizingPeriod: SAN FRANCISCO INTL AP ANN CLG 2% CONDNS WB=>MDB,8.3551481884E-002,0.1074045238,Pass,Pass,3.0606818463E-002,3.9540384187E-002,Pass,Pass
 Warmup Convergence Information,THERMAL ZONE 9,SizingPeriod: SAN FRANCISCO INTL AP ANN CLG 2% CONDNS WB=>MDB,5.6997723668E-002,9.8823515828E-002,Pass,Pass,1.7554517072E-002,2.0860562288E-002,Pass,Pass
 Warmup Convergence Information,THERMAL ZONE 25,SizingPeriod: SAN FRANCISCO INTL AP ANN CLG 2% CONDNS WB=>MDB,8.3751469236E-002,0.1614337818,Pass,Pass,7.6520986899E-002,9.9782299265E-002,Pass,Pass
 Warmup Convergence Information,THERMAL ZONE 23,SizingPeriod: SAN FRANCISCO INTL AP ANN CLG 2% CONDNS WB=>MDB,8.3484258971E-002,0.1112825109,Pass,Pass,2.8594962168E-002,3.2600948060E-002,Pass,Pass
 Warmup Convergence Information,THERMAL ZONE 15,SizingPeriod: SAN FRANCISCO INTL AP ANN CLG 2% CONDNS WB=>MDB,8.3530639944E-002,0.1158094925,Pass,Pass,3.0857627292E-002,3.5545941560E-002,Pass,Pass
 Warmup Convergence Information,THERMAL ZONE 20,SizingPeriod: SAN FRANCISCO INTL AP ANN CLG 2% CONDNS WB=>MDB,8.3591160567E-002,0.1547043538,Pass,Pass,2.9806425831E-002,3.1736063616E-002,Pass,Pass
 Warmup Convergence Information,THERMAL ZONE 6,SizingPeriod: SAN FRANCISCO INTL AP ANN CLG 2% CONDNS WB=>MDB,1.7636036576E-004,3.8344454794E-004,Pass,Pass,1.1015129797E-002,4.1015429429E-002,Pass,Pass
 Warmup Convergence Information,THERMAL ZONE 12,SizingPeriod: SAN FRANCISCO INTL AP ANN CLG 2% CONDNS WB=>MDB,8.3626868955E-002,0.1225929364,Pass,Pass,3.7207682264E-002,5.1096131059E-002,Pass,Pass
 Warmup Convergence Information,THERMAL ZONE 13,SizingPeriod: SAN FRANCISCO INTL AP ANN CLG 2% CONDNS WB=>MDB,5.6265956449E-002,9.9252390217E-002,Pass,Pass,1.7857877089E-002,2.1861424707E-002,Pass,Pass
Environment,RUN PERIOD 1,WeatherFileRunPeriod,01/01,12/31,Thursday,365,Use RunPeriod Specified Day,Yes,Yes,No ,Yes,Yes
Environment:Daylight Saving,Yes,InputFile,03/08,11/01
Environment:WarmupDays,  6
 Warmup Convergence Information,THERMAL ZONE 18,RunPeriod: RUN PERIOD 1,8.4359500512E-002,0.1912615253,Pass,Pass,0.1121410957,0.1682527074,Pass,Pass
 Warmup Convergence Information,THERMAL ZONE 19,RunPeriod: RUN PERIOD 1,4.1114575105E-002,0.1022251877,Pass,Pass,0.1396277524,0.4765158198,Pass,Pass
 Warmup Convergence Information,THERMAL ZONE 17,RunPeriod: RUN PERIOD 1,4.9341753993E-003,1.7644522932E-002,Pass,Pass,0.7510797118,5.3436695462,Pass,Pass
 Warmup Convergence Information,THERMAL ZONE 14,RunPeriod: RUN PERIOD 1,3.0547263249E-002,6.1224006376E-002,Pass,Pass,0.2214006048,1.3774890704,Pass,Pass
 Warmup Convergence Information,THERMAL ZONE 21,RunPeriod: RUN PERIOD 1,8.8245504184E-002,0.1511216054,Pass,Pass,0.4356351717,2.6895352023,Pass,Pass
 Warmup Convergence Information,THERMAL ZONE 8,RunPeriod: RUN PERIOD 1,6.1096855288E-003,1.5753496366E-002,Pass,Pass,0.4692067638,1.8807610526,Pass,Pass
 Warmup Convergence Information,THERMAL ZONE 11,RunPeriod: RUN PERIOD 1,4.0304803205E-002,7.5604400997E-002,Pass,Pass,0.1056494861,0.2183487772,Pass,Pass
 Warmup Convergence Information,THERMAL ZONE 22,RunPeriod: RUN PERIOD 1,8.4623148300E-002,0.1422613162,Pass,Pass,8.1096458971E-002,0.1210033065,Pass,Pass
 Warmup Convergence Information,THERMAL ZONE 1,RunPeriod: RUN PERIOD 1,8.0642286214E-002,0.1844674985,Pass,Pass,2.0913542992E-002,5.1237016672E-002,Pass,Pass
 Warmup Convergence Information,THERMAL ZONE 16,RunPeriod: RUN PERIOD 1,7.8461851996E-002,0.1875078035,Pass,Pass,2.1782524142E-002,5.6475934962E-002,Pass,Pass
 Warmup Convergence Information,THERMAL ZONE 5,RunPeriod: RUN PERIOD 1,8.3524482594E-002,0.1863022820,Pass,Pass,2.6133227735E-002,5.4014717337E-002,Pass,Pass
 Warmup Convergence Information,THERMAL ZONE 7,RunPeriod: RUN PERIOD 1,4.1964141532E-002,0.1035428919,Pass,Pass,0.1060804062,0.2487286091,Pass,Pass
 Warmup Convergence Information,THERMAL ZONE 24,RunPeriod: RUN PERIOD 1,8.4403482904E-002,0.1458935047,Pass,Pass,0.1517864892,0.3677711492,Pass,Pass
 Warmup Convergence Information,THERMAL ZONE 10,RunPeriod: RUN PERIOD 1,4.0209581621E-002,7.5807547750E-002,Pass,Pass,0.1936589881,0.6843483228,Pass,Pass
 Warmup Convergence Information,THERMAL ZONE 3,RunPeriod: RUN PERIOD 1,2.8536624224E-002,5.8754532481E-002,Pass,Pass,0.1217074515,0.3649155831,Pass,Pass
 Warmup Convergence Information,THERMAL ZONE 2,RunPeriod: RUN PERIOD 1,5.0603322146E-002,0.1358242298,Pass,Pass,0.2735362735,0.7137481263,Pass,Pass
 Warmup Convergence Information,THERMAL ZONE 4,RunPeriod: RUN PERIOD 1,4.1414641649E-002,0.1021948328,Pass,Pass,0.1120429906,0.2868263441,Pass,Pass
 Warmup Convergence Information,THERMAL ZONE 9,RunPeriod: RUN PERIOD 1,3.1996826884E-002,6.3219374927E-002,Pass,Pass,0.1457038634,0.6606369129,Pass,Pass
 Warmup Convergence Information,THERMAL ZONE 25,RunPeriod: RUN PERIOD 1,4.5609651275E-002,0.1017545858,Pass,Pass,8.1066116699E-002,0.1557656135,Pass,Pass
 Warmup Convergence Information,THERMAL ZONE 23,RunPeriod: RUN PERIOD 1,8.4360889770E-002,0.1465373400,Pass,Pass,0.1546610132,0.3995489359,Pass,Pass
 Warmup Convergence Information,THERMAL ZONE 15,RunPeriod: RUN PERIOD 1,8.4355436220E-002,0.1485913784,Pass,Pass,0.1876104267,0.6410060106,Pass,Pass
 Warmup Convergence Information,THERMAL ZONE 20,RunPeriod: RUN PERIOD 1,4.1092169894E-002,7.6916674904E-002,Pass,Pass,9.7093352481E-002,0.2021125199,Pass,Pass
 Warmup Convergence Information,THERMAL ZONE 6,RunPeriod: RUN PERIOD 1,8.7544842736E-002,0.1781007360,Pass,Pass,0.1488039295,0.3013749635,Pass,Pass
 Warmup Convergence Information,THERMAL ZONE 12,RunPeriod: RUN PERIOD 1,3.2175703666E-002,8.5571472519E-002,Pass,Pass,0.3766463621,1.3155454088,Pass,Pass
 Warmup Convergence Information,THERMAL ZONE 13,RunPeriod: RUN PERIOD 1,3.3705389728E-002,6.4945168123E-002,Pass,Pass,0.1422608120,0.5647177012,Pass,Pass
! <Program Control Information:Threads/Parallel Sims>, Threading Supported,Maximum Number of Threads, Env Set Threads (OMP_NUM_THREADS), EP Env Set Threads (EP_OMP_NUM_THREADS), IDF Set Threads, Number of Threads Used (Interior Radiant Exchange), Number Nominal Surfaces, Number Parallel Sims
Program Control:Threads/Parallel Sims, Yes,1, Not Set, Not Set, 1, 1, 170, N/A
End of Data
