Program Version,EnergyPlus-Linux-OMP-32 7.2.0.006, YMD=2013.02.08 20:23,
   **  Fatal  ** ProcessInput: Energy+.idd missing. Program terminates. Fullname=Energy+.idd
   ...Summary of Errors that led to program termination:
   ..... Reference severe error count=0
   ..... Last severe error=
   ************* Warning:  Node connection errors not checked - most system input has not been read (see previous warning).
   ************* Fatal error -- final processing.  Program exited before simulations began.  See previous error messages.
   ************* No EnergyPlus Data Dictionary (Energy+.idd) was found. It is possible you "double-clicked" EnergyPlus.exe
   ************* rather than using one of the methods to run Energyplus as found in the GettingStarted document
   ************* in the documentation folder.  Using EP-Launch may be best -- it provides extra help for new users.
