Program Version,EnergyPlus-Linux-OMP-32 7.2.0.006, YMD=2013.04.10 17:59,IDD_Version 7.2.0.006
   ** Warning ** No Timestep object found.  Number of TimeSteps in Hour defaulted to 4.
   ** Warning ** CheckEnvironmentSpecifications: SimulationControl specified doing design day simulations, but no design environments specified.
   **   ~~~   ** ...No design environment results produced. For these results, add appropriate SizingPeriod:* objects for your simulation.
   ** Warning ** ProcessScheduleInput: Schedule:Day:Interval="CHILLED_WATER_TEMPERATURE_SUMMER_DESIGN_DAY", Blank Schedule Type Limits Name input -- will not be validated.
   ** Warning ** ProcessScheduleInput: Schedule:Day:Interval="CHILLED_WATER_TEMPERATURE_WINTER_DESIGN_DAY", Blank Schedule Type Limits Name input -- will not be validated.
   ** Warning ** ProcessScheduleInput: Schedule:Day:Interval="CHILLED_WATER_TEMPERATURE_DEFAULT", Blank Schedule Type Limits Name input -- will not be validated.
   ** Warning ** ProcessScheduleInput: Schedule:Year="CHILLED_WATER_TEMPERATURE", Blank Schedule Type Limits Name input -- will not be validated.
   ** Warning ** ProcessScheduleInput: Schedule:Compact="SCHEDULE:COMPACT {8684E08A-3F47-4146-BDE1-2B8607FE457B}", Blank Schedule Type Limits Name input -- will not be validated.
   ** Warning ** ProcessScheduleInput: Schedule:Compact="SCHEDULE:COMPACT {B7888DB5-2901-4A72-A1FB-25A7A2CF0FED}", Blank Schedule Type Limits Name input -- will not be validated.
   ** Warning ** ProcessScheduleInput: Schedule:Compact="PLANT LOOP 1 ON SCHEDULE", Blank Schedule Type Limits Name input -- will not be validated.
   ** Warning ** ProcessScheduleInput: Schedule:Compact="THERMAL ZONE 8 THERMOSTAT SCHEDULE", Blank Schedule Type Limits Name input -- will not be validated.
   ** Warning ** ProcessScheduleInput: Schedule:Compact="THERMAL ZONE 4 THERMOSTAT SCHEDULE", Blank Schedule Type Limits Name input -- will not be validated.
   ** Warning ** ProcessScheduleInput: Schedule:Compact="THERMAL ZONE 9 THERMOSTAT SCHEDULE", Blank Schedule Type Limits Name input -- will not be validated.
   ** Warning ** ProcessScheduleInput: Schedule:Compact="THERMAL ZONE 3 THERMOSTAT SCHEDULE", Blank Schedule Type Limits Name input -- will not be validated.
   ** Warning ** ProcessScheduleInput: Schedule:Compact="THERMAL ZONE 7 THERMOSTAT SCHEDULE", Blank Schedule Type Limits Name input -- will not be validated.
   ** Warning ** ProcessScheduleInput: Schedule:Compact="THERMAL ZONE 6 THERMOSTAT SCHEDULE", Blank Schedule Type Limits Name input -- will not be validated.
   ** Warning ** ProcessScheduleInput: Schedule:Compact="THERMAL ZONE 5 THERMOSTAT SCHEDULE", Blank Schedule Type Limits Name input -- will not be validated.
   ** Warning ** ProcessScheduleInput: Schedule:Compact="THERMAL ZONE 10 THERMOSTAT SCHEDULE", Blank Schedule Type Limits Name input -- will not be validated.
   ** Warning ** ProcessScheduleInput: Schedule:Compact="THERMAL ZONE 2 THERMOSTAT SCHEDULE", Blank Schedule Type Limits Name input -- will not be validated.
   ** Warning ** ProcessScheduleInput: Schedule:Compact="THERMAL ZONE 1 THERMOSTAT SCHEDULE", Blank Schedule Type Limits Name input -- will not be validated.
   ** Warning ** GetSurfaces: Surfaces with interface to Ground found but no "Ground Temperatures" were input.
   **   ~~~   ** Found first in surface=SURFACE 25
   **   ~~~   ** Defaults, constant throughout the year of (18.0) will be used.
   ** Warning ** CheckUsedConstructions: There are 6 nominally unused constructions in input.
   **   ~~~   ** For explicit details on each unused construction, use Output:Diagnostics,DisplayExtraWarnings;
   ** Severe  ** For autosizing of AirTerminal:SingleDuct:VAV:Reheat AIR TERMINAL SINGLE DUCT VAV REHEAT 10, a zone sizing run must be done.
   **   ~~~   ** No "Sizing:Zone" objects were entered.
   **   ~~~   ** The "SimulationControl" object did not have the field "Do Zone Sizing Calculation" set to Yes.
   **  Fatal  ** Program terminates due to previously shown condition(s).
   ...Summary of Errors that led to program termination:
   ..... Reference severe error count=1
   ..... Last severe error=For autosizing of AirTerminal:SingleDuct:VAV:Reheat AIR TERMINAL SINGLE DUCT VAV REHEAT 10, a zone sizing run must be done.
   ************* Warning:  Node connection errors not checked - most system input has not been read (see previous warning).
   ************* Fatal error -- final processing.  Program exited before simulations began.  See previous error messages.
   *************
   ************* ===== Final Error Summary =====
   ************* The following error categories occurred.  Consider correcting or noting.
   ************* Nominally Unused Constructions
   ************* ..The nominally unused constructions warning is provided to alert you to potential conditions that can cause
   ************* ..extra time during simulation. Each construction is calculated by the algorithm indicated in the HeatBalanceAlgorithm
   ************* ..object. You may remove the constructions indicated (when you use the DisplayExtraWarnings option).
   *************
   ************* EnergyPlus Warmup Error Summary. During Warmup: 0 Warning; 0 Severe Errors.
   ************* EnergyPlus Sizing Error Summary. During Sizing: 0 Warning; 0 Severe Errors.
   ************* EnergyPlus Terminated--Fatal Error Detected. 21 Warning; 1 Severe Errors; Elapsed Time=00hr 00min  2.03sec
