Program Version,EnergyPlus-Linux-OMP-32 7.2.0.006, YMD=2013.03.05 20:01
