Program Version,EnergyPlus-Linux-OMP-32 7.2.0.006, YMD=2013.05.14 17:55
! <Version>, Version ID
 Version, 7.2
! <Timesteps per Hour>, #TimeSteps, Minutes per TimeStep {minutes}
 Timesteps per Hour,  4, 15
! <System Convergence Limits>, Minimum System TimeStep {minutes}, Max HVAC Iterations,  Minimum Plant Iterations, Maximum Plant Iterations
 System Convergence Limits, 1, 20, 2, 8
! <Simulation Control>, Do Zone Sizing, Do System Sizing, Do Plant Sizing, Do Design Days, Do Weather Simulation
 Simulation Control, Yes, Yes, Yes, Yes, Yes
! <Output Reporting Tolerances>, Tolerance for Time Heating Setpoint Not Met, Tolerance for Time Cooling Setpoint Not Met
 Output Reporting Tolerances, 0.200, 0.200, 
! <Site:GroundTemperature:BuildingSurface>, Months From Jan to Dec {Deg C}
 Site:GroundTemperature:BuildingSurface,  18.00,  18.00,  18.00,  18.00,  18.00,  18.00,  18.00,  18.00,  18.00,  18.00,  18.00,  18.00
! <Site:GroundTemperature:FCfactorMethod>, Months From Jan to Dec {Deg C}
 Site:GroundTemperature:FCfactorMethod,  13.01,  15.04,  18.98,  22.72,  29.80,  33.52,  34.55,  32.66,  28.30,  22.86,  17.51,  13.97
! <Site:GroundTemperature:Shallow>, Months From Jan to Dec {Deg C}
 Site:GroundTemperature:Shallow,  13.00,  13.00,  13.00,  13.00,  13.00,  13.00,  13.00,  13.00,  13.00,  13.00,  13.00,  13.00
! <Site:GroundTemperature:Deep>, Months From Jan to Dec {Deg C}
 Site:GroundTemperature:Deep,  16.00,  16.00,  16.00,  16.00,  16.00,  16.00,  16.00,  16.00,  16.00,  16.00,  16.00,  16.00
! <Site:GroundReflectance>, Months From Jan to Dec {dimensionless}
 Site:GroundReflectance,  0.20,  0.20,  0.20,  0.20,  0.20,  0.20,  0.20,  0.20,  0.20,  0.20,  0.20,  0.20
! <Site:GroundReflectance:SnowModifier>, Normal, Daylighting {dimensionless}
 Site:GroundReflectance:SnowModifier,   1.000,   1.000
! <Site:GroundReflectance:Snow>, Months From Jan to Dec {dimensionless}
 Site:GroundReflectance:Snow,  0.20,  0.20,  0.20,  0.20,  0.20,  0.20,  0.20,  0.20,  0.20,  0.20,  0.20,  0.20
! <Site:GroundReflectance:Snow:Daylighting>, Months From Jan to Dec {dimensionless}
 Site:GroundReflectance:Snow:Daylighting,  0.20,  0.20,  0.20,  0.20,  0.20,  0.20,  0.20,  0.20,  0.20,  0.20,  0.20,  0.20
! <Environment:Weather Station>,Wind Sensor Height Above Ground {m},Wind Speed Profile Exponent {},Wind Speed Profile Boundary Layer Thickness {m},Air Temperature Sensor Height Above Ground {m},Wind Speed Modifier Coefficient [Internal],Temperature Modifier Coefficient [Internal]
Environment:Weather Station,10.000,0.140,270.000,1.500,1.586,9.750E-003
! <Site:Location>, Location Name, Latitude {N+/S- Deg}, Longitude {E+/W- Deg},  Time Zone Number {GMT+/-}, Elevation {m},  Standard Pressure at Elevation {Pa}, Standard RhoAir at Elevation
Site:Location,Phoenix Sky Harbor Intl Ap AZ USA TMY3 WMO#=722780,33.45,-111.98,-7.00,337.00,97342,1.1570
! <Building Information>, Building Name,North Axis {deg},Terrain,  Loads Convergence Tolerance Value,Temperature Convergence Tolerance Value,  Solar Distribution,Maximum Number of Warmup Days,Minimum Number of Warmup Days
 Building Information,Building 1,0.000,Suburbs,4.00000E-002,0.40000,FullExterior,25,6
! <Inside Convection Algorithm>, Algorithm {Simple | TARP | CeilingDiffuser | AdaptiveConvectionAlgorithm}
Inside Convection Algorithm,TARP
! <Outside Convection Algorithm>, Algorithm {SimpleCombined | TARP | MoWitt | DOE-2 | AdaptiveConvectionAlgorithm}
Outside Convection Algorithm,DOE-2
! <Sky Radiance Distribution>, Value {Anisotropic}
Sky Radiance Distribution,Anisotropic
! <Zone Air Solution Algorithm>, Value {ThirdOrderBackwardDifference | AnalyticalSolution | EulerMethod}
 Zone Air Solution Algorithm, ThirdOrderBackwardDifference
! <Zone Air Contaminant Balance Simulation>, Simulation {Yes/No}, Carbon Dioxide Concentration
 Zone Air Carbon Dioxide Balance Simulation, No,N/A
! <Zone Air Contaminant Balance Simulation>, Simulation {Yes/No}, Generic Contaminant Concentration
 Zone Air Generic Contaminant Balance Simulation, No,N/A
! <Environment:Site Atmospheric Variation>,Wind Speed Profile Exponent {},Wind Speed Profile Boundary Layer Thickness {m},Air Temperature Gradient Coefficient {K/m}
Environment:Site Atmospheric Variation,0.220,370.000,6.500000E-003
! <SurfaceGeometry>,Starting Corner,Vertex Input Direction,Coordinate System,Daylight Reference Point Coordinate System,Rectangular (Simple) Surface Coordinate System
 Surface Geometry,UpperLeftCorner,Counterclockwise,RelativeCoordinateSystem,RelativeCoordinateSystem,RelativeToZoneOrigin
! <Surface Heat Transfer Algorithm>, Value {CTF - ConductionTransferFunction | EMPD - MoisturePenetrationDepthConductionTransferFunction | CondFD - ConductionFiniteDifference | HAMT - CombinedHeatAndMoistureFiniteElement} - Description,Inside Surface Max Temperature Limit{C}, Surface Convection Coefficient Lower Limit {W/m2-K}, Surface Convection Coefficient Upper Limit {W/m2-K}
Surface Heat Transfer Algorithm, CTF - ConductionTransferFunction,200,0.10,1000.0
! <Shading Summary>, Number of Fixed Detached Shades, Number of Building Detached Shades, Number of Attached Shades
 Shading Summary,0,0,0
! <Zone Summary>, Number of Zones, Number of Zone Surfaces, Number of SubSurfaces
 Zone Summary,45,306,36
! <Zone Information>,Zone Name,North Axis {deg},Origin X-Coordinate {m},Origin Y-Coordinate {m},Origin Z-Coordinate {m},Centroid X-Coordinate {m},Centroid Y-Coordinate {m},Centroid Z-Coordinate {m},Type,Zone Multiplier,Zone List Multiplier,Minimum X {m},Maximum X {m},Minimum Y {m},Maximum Y {m},Minimum Z {m},Maximum Z {m},Ceiling Height {m},Volume {m3},Zone Inside Convection Algorithm {Simple-Detailed-CeilingDiffuser-TrombeWall},Zone Outside Convection Algorithm {Simple-Detailed-Tarp-MoWitt-DOE-2-BLAST}, Floor Area {m2},Exterior Gross Wall Area {m2},Exterior Net Wall Area {m2},Exterior Window Area {m2}, Number of Surfaces, Number of SubSurfaces, Number of Shading SubSurfaces,  Part of Total Building Area
 Zone Information, THERMAL ZONE 7,0.0,13.67,3.00,16.00,15.37,8.33,18.00,1,1,1,13.67,16.67,0.00,16.67,16.00,20.00,4.00,164.00,TARP,DOE-2,41.00,66.67,26.67,40.00,6,1,0,Yes
 Zone Information, THERMAL ZONE 32,0.0,0.00,0.00,20.00,1.30,8.33,22.00,1,1,1,0.00,3.00,0.00,16.67,20.00,24.00,4.00,164.00,TARP,DOE-2,41.00,66.67,26.67,40.00,6,1,0,Yes
 Zone Information, THERMAL ZONE 37,0.0,3.00,13.67,32.00,8.33,15.37,34.00,1,1,1,0.00,16.67,13.67,16.67,32.00,36.00,4.00,164.00,TARP,DOE-2,41.00,66.67,26.67,40.00,6,1,0,Yes
 Zone Information, THERMAL ZONE 35,0.0,0.00,0.00,24.00,8.33,1.30,26.00,1,1,1,0.00,16.67,0.00,3.00,24.00,28.00,4.00,164.00,TARP,DOE-2,41.00,66.67,26.67,40.00,6,1,0,Yes
 Zone Information, THERMAL ZONE 29,0.0,13.67,3.00,20.00,15.37,8.33,22.00,1,1,1,13.67,16.67,0.00,16.67,20.00,24.00,4.00,164.00,TARP,DOE-2,41.00,66.67,26.67,40.00,6,1,0,Yes
 Zone Information, THERMAL ZONE 17,0.0,13.67,3.00,4.00,15.37,8.33,6.00,1,1,1,13.67,16.67,0.00,16.67,4.00,8.00,4.00,164.00,TARP,DOE-2,41.00,66.67,26.67,40.00,6,1,0,Yes
 Zone Information, THERMAL ZONE 36,0.0,3.00,3.00,24.00,8.33,8.33,26.00,1,1,1,3.00,13.67,3.00,13.67,24.00,28.00,4.00,455.11,TARP,DOE-2,113.78,0.00,0.00,0.00,6,0,0,Yes
 Zone Information, THERMAL ZONE 31,0.0,0.00,0.00,12.00,1.30,8.33,14.00,1,1,1,0.00,3.00,0.00,16.67,12.00,16.00,4.00,164.00,TARP,DOE-2,41.00,66.67,26.67,40.00,6,1,0,Yes
 Zone Information, THERMAL ZONE 27,0.0,0.00,0.00,8.00,1.30,8.33,10.00,1,1,1,0.00,3.00,0.00,16.67,8.00,12.00,4.00,164.00,TARP,DOE-2,41.00,66.67,26.67,40.00,6,1,0,Yes
 Zone Information, THERMAL ZONE 22,0.0,3.00,3.00,8.00,8.33,8.33,10.00,1,1,1,3.00,13.67,3.00,13.67,8.00,12.00,4.00,455.11,TARP,DOE-2,113.78,0.00,0.00,0.00,6,0,0,Yes
 Zone Information, THERMAL ZONE 18,0.0,0.00,0.00,8.00,8.33,1.30,10.00,1,1,1,0.00,16.67,0.00,3.00,8.00,12.00,4.00,164.00,TARP,DOE-2,41.00,66.67,26.67,40.00,6,1,0,Yes
 Zone Information, THERMAL ZONE 41,0.0,13.67,3.00,0.00,15.37,8.33,2.00,1,1,1,13.67,16.67,0.00,16.67,0.00,4.00,4.00,164.00,TARP,DOE-2,41.00,66.67,26.67,40.00,6,1,0,Yes
 Zone Information, THERMAL ZONE 15,0.0,13.67,3.00,32.00,15.37,8.33,34.00,1,1,1,13.67,16.67,0.00,16.67,32.00,36.00,4.00,164.00,TARP,DOE-2,41.00,66.67,26.67,40.00,6,1,0,Yes
 Zone Information, THERMAL ZONE 45,0.0,0.00,0.00,28.00,8.33,1.30,30.00,1,1,1,0.00,16.67,0.00,3.00,28.00,32.00,4.00,164.00,TARP,DOE-2,41.00,66.67,26.67,40.00,6,1,0,Yes
 Zone Information, THERMAL ZONE 33,0.0,13.67,3.00,8.00,15.37,8.33,10.00,1,1,1,13.67,16.67,0.00,16.67,8.00,12.00,4.00,164.00,TARP,DOE-2,41.00,66.67,26.67,40.00,6,1,0,Yes
 Zone Information, THERMAL ZONE 24,0.0,3.00,13.67,28.00,8.33,15.37,30.00,1,1,1,0.00,16.67,13.67,16.67,28.00,32.00,4.00,164.00,TARP,DOE-2,41.00,66.67,26.67,40.00,6,1,0,Yes
 Zone Information, THERMAL ZONE 44,0.0,0.00,0.00,32.00,1.30,8.33,34.00,1,1,1,0.00,3.00,0.00,16.67,32.00,36.00,4.00,164.00,TARP,DOE-2,41.00,66.67,26.67,40.00,6,1,0,Yes
 Zone Information, THERMAL ZONE 38,0.0,0.00,0.00,0.00,1.30,8.33,2.00,1,1,1,0.00,3.00,0.00,16.67,0.00,4.00,4.00,164.00,TARP,DOE-2,41.00,66.67,26.67,40.00,6,1,0,Yes
 Zone Information, THERMAL ZONE 23,0.0,0.00,0.00,4.00,1.30,8.33,6.00,1,1,1,0.00,3.00,0.00,16.67,4.00,8.00,4.00,164.00,TARP,DOE-2,41.00,66.67,26.67,40.00,6,1,0,Yes
 Zone Information, THERMAL ZONE 8,0.0,3.00,3.00,16.00,8.33,8.33,18.00,1,1,1,3.00,13.67,3.00,13.67,16.00,20.00,4.00,455.11,TARP,DOE-2,113.78,0.00,0.00,0.00,6,0,0,Yes
 Zone Information, THERMAL ZONE 21,0.0,3.00,13.67,20.00,8.33,15.37,22.00,1,1,1,0.00,16.67,13.67,16.67,20.00,24.00,4.00,164.00,TARP,DOE-2,41.00,66.67,26.67,40.00,6,1,0,Yes
 Zone Information, THERMAL ZONE 34,0.0,3.00,3.00,32.00,8.33,8.33,34.00,1,1,1,3.00,13.67,3.00,13.67,32.00,36.00,4.00,455.11,TARP,DOE-2,113.78,0.00,0.00,0.00,6,0,0,Yes
 Zone Information, THERMAL ZONE 26,0.0,3.00,13.67,0.00,8.33,15.37,2.00,1,1,1,0.00,16.67,13.67,16.67,0.00,4.00,4.00,164.00,TARP,DOE-2,41.00,66.67,26.67,40.00,6,1,0,Yes
 Zone Information, THERMAL ZONE 40,0.0,3.00,13.67,12.00,8.33,15.37,14.00,1,1,1,0.00,16.67,13.67,16.67,12.00,16.00,4.00,164.00,TARP,DOE-2,41.00,66.67,26.67,40.00,6,1,0,Yes
 Zone Information, THERMAL ZONE 16,0.0,0.00,0.00,4.00,8.33,1.30,6.00,1,1,1,0.00,16.67,0.00,3.00,4.00,8.00,4.00,164.00,TARP,DOE-2,41.00,66.67,26.67,40.00,6,1,0,Yes
 Zone Information, THERMAL ZONE 4,0.0,0.00,0.00,24.00,1.30,8.33,26.00,1,1,1,0.00,3.00,0.00,16.67,24.00,28.00,4.00,164.00,TARP,DOE-2,41.00,66.67,26.67,40.00,6,1,0,Yes
 Zone Information, THERMAL ZONE 13,0.0,3.00,13.67,24.00,8.33,15.37,26.00,1,1,1,0.00,16.67,13.67,16.67,24.00,28.00,4.00,164.00,TARP,DOE-2,41.00,66.67,26.67,40.00,6,1,0,Yes
 Zone Information, THERMAL ZONE 30,0.0,13.67,3.00,12.00,15.37,8.33,14.00,1,1,1,13.67,16.67,0.00,16.67,12.00,16.00,4.00,164.00,TARP,DOE-2,41.00,66.67,26.67,40.00,6,1,0,Yes
 Zone Information, THERMAL ZONE 3,0.0,3.00,13.67,8.00,8.33,15.37,10.00,1,1,1,0.00,16.67,13.67,16.67,8.00,12.00,4.00,164.00,TARP,DOE-2,41.00,66.67,26.67,40.00,6,1,0,Yes
 Zone Information, THERMAL ZONE 25,0.0,0.00,0.00,16.00,8.33,1.30,18.00,1,1,1,0.00,16.67,0.00,3.00,16.00,20.00,4.00,164.00,TARP,DOE-2,41.00,66.67,26.67,40.00,6,1,0,Yes
 Zone Information, THERMAL ZONE 5,0.0,0.00,0.00,32.00,8.33,1.30,34.00,1,1,1,0.00,16.67,0.00,3.00,32.00,36.00,4.00,164.00,TARP,DOE-2,41.00,66.67,26.67,40.00,6,1,0,Yes
 Zone Information, THERMAL ZONE 28,0.0,3.00,3.00,28.00,8.33,8.33,30.00,1,1,1,3.00,13.67,3.00,13.67,28.00,32.00,4.00,455.11,TARP,DOE-2,113.78,0.00,0.00,0.00,6,0,0,Yes
 Zone Information, THERMAL ZONE 1,0.0,0.00,0.00,0.00,8.33,1.30,2.00,1,1,1,0.00,16.67,0.00,3.00,0.00,4.00,4.00,164.00,TARP,DOE-2,41.00,66.67,26.67,40.00,6,1,0,Yes
 Zone Information, THERMAL ZONE 11,0.0,13.67,3.00,28.00,15.37,8.33,30.00,1,1,1,13.67,16.67,0.00,16.67,28.00,32.00,4.00,164.00,TARP,DOE-2,41.00,66.67,26.67,40.00,6,1,0,Yes
 Zone Information, THERMAL ZONE 12,0.0,3.00,3.00,0.00,8.33,8.33,2.00,1,1,1,3.00,13.67,3.00,13.67,0.00,4.00,4.00,455.11,TARP,DOE-2,113.78,0.00,0.00,0.00,6,0,0,Yes
 Zone Information, THERMAL ZONE 6,0.0,0.00,0.00,16.00,1.30,8.33,18.00,1,1,1,0.00,3.00,0.00,16.67,16.00,20.00,4.00,164.00,TARP,DOE-2,41.00,66.67,26.67,40.00,6,1,0,Yes
 Zone Information, THERMAL ZONE 10,0.0,0.00,0.00,12.00,8.33,1.30,14.00,1,1,1,0.00,16.67,0.00,3.00,12.00,16.00,4.00,164.00,TARP,DOE-2,41.00,66.67,26.67,40.00,6,1,0,Yes
 Zone Information, THERMAL ZONE 19,0.0,3.00,13.67,4.00,8.33,15.37,6.00,1,1,1,0.00,16.67,13.67,16.67,4.00,8.00,4.00,164.00,TARP,DOE-2,41.00,66.67,26.67,40.00,6,1,0,Yes
 Zone Information, THERMAL ZONE 39,0.0,0.00,0.00,20.00,8.33,1.30,22.00,1,1,1,0.00,16.67,0.00,3.00,20.00,24.00,4.00,164.00,TARP,DOE-2,41.00,66.67,26.67,40.00,6,1,0,Yes
 Zone Information, THERMAL ZONE 43,0.0,13.67,3.00,24.00,15.37,8.33,26.00,1,1,1,13.67,16.67,0.00,16.67,24.00,28.00,4.00,164.00,TARP,DOE-2,41.00,66.67,26.67,40.00,6,1,0,Yes
 Zone Information, THERMAL ZONE 42,0.0,3.00,3.00,4.00,8.33,8.33,6.00,1,1,1,3.00,13.67,3.00,13.67,4.00,8.00,4.00,455.11,TARP,DOE-2,113.78,0.00,0.00,0.00,6,0,0,Yes
 Zone Information, THERMAL ZONE 9,0.0,3.00,3.00,20.00,8.33,8.33,22.00,1,1,1,3.00,13.67,3.00,13.67,20.00,24.00,4.00,455.11,TARP,DOE-2,113.78,0.00,0.00,0.00,6,0,0,Yes
 Zone Information, THERMAL ZONE 14,0.0,0.00,0.00,28.00,1.30,8.33,30.00,1,1,1,0.00,3.00,0.00,16.67,28.00,32.00,4.00,164.00,TARP,DOE-2,41.00,66.67,26.67,40.00,6,1,0,Yes
 Zone Information, THERMAL ZONE 20,0.0,3.00,13.67,16.00,8.33,15.37,18.00,1,1,1,0.00,16.67,13.67,16.67,16.00,20.00,4.00,164.00,TARP,DOE-2,41.00,66.67,26.67,40.00,6,1,0,Yes
 Zone Information, THERMAL ZONE 2,0.0,3.00,3.00,12.00,8.33,8.33,14.00,1,1,1,3.00,13.67,3.00,13.67,12.00,16.00,4.00,455.11,TARP,DOE-2,113.78,0.00,0.00,0.00,6,0,0,Yes
! <Zone Internal Gains/Equipment Information - Nominal>,Zone Name, Floor Area {m2},# Occupants,Area per Occupant {m2/person},Occupant per Area {person/m2},Interior Lighting {W/m2},Electric Load {W/m2},Gas Load {W/m2},Other Load {W/m2},Hot Water Eq {W/m2},Steam Equipment {W/m2},Sum Loads per Area {W/m2},Outdoor Controlled Baseboard Heat
 Zone Internal Gains, THERMAL ZONE 7,41.00,0.0,N/A,0.000,0.000,0.000,0.000,0.000,0.000,0.000,0.000,No
 Zone Internal Gains, THERMAL ZONE 32,41.00,0.0,N/A,0.000,0.000,0.000,0.000,0.000,0.000,0.000,0.000,No
 Zone Internal Gains, THERMAL ZONE 37,41.00,0.0,N/A,0.000,0.000,0.000,0.000,0.000,0.000,0.000,0.000,No
 Zone Internal Gains, THERMAL ZONE 35,41.00,0.0,N/A,0.000,0.000,0.000,0.000,0.000,0.000,0.000,0.000,No
 Zone Internal Gains, THERMAL ZONE 29,41.00,0.0,N/A,0.000,0.000,0.000,0.000,0.000,0.000,0.000,0.000,No
 Zone Internal Gains, THERMAL ZONE 17,41.00,0.0,N/A,0.000,0.000,0.000,0.000,0.000,0.000,0.000,0.000,No
 Zone Internal Gains, THERMAL ZONE 36,113.78,0.0,N/A,0.000,0.000,0.000,0.000,0.000,0.000,0.000,0.000,No
 Zone Internal Gains, THERMAL ZONE 31,41.00,0.0,N/A,0.000,0.000,0.000,0.000,0.000,0.000,0.000,0.000,No
 Zone Internal Gains, THERMAL ZONE 27,41.00,0.0,N/A,0.000,0.000,0.000,0.000,0.000,0.000,0.000,0.000,No
 Zone Internal Gains, THERMAL ZONE 22,113.78,0.0,N/A,0.000,0.000,0.000,0.000,0.000,0.000,0.000,0.000,No
 Zone Internal Gains, THERMAL ZONE 18,41.00,0.0,N/A,0.000,0.000,0.000,0.000,0.000,0.000,0.000,0.000,No
 Zone Internal Gains, THERMAL ZONE 41,41.00,0.0,N/A,0.000,0.000,0.000,0.000,0.000,0.000,0.000,0.000,No
 Zone Internal Gains, THERMAL ZONE 15,41.00,0.0,N/A,0.000,0.000,0.000,0.000,0.000,0.000,0.000,0.000,No
 Zone Internal Gains, THERMAL ZONE 45,41.00,0.0,N/A,0.000,0.000,0.000,0.000,0.000,0.000,0.000,0.000,No
 Zone Internal Gains, THERMAL ZONE 33,41.00,0.0,N/A,0.000,0.000,0.000,0.000,0.000,0.000,0.000,0.000,No
 Zone Internal Gains, THERMAL ZONE 24,41.00,0.0,N/A,0.000,0.000,0.000,0.000,0.000,0.000,0.000,0.000,No
 Zone Internal Gains, THERMAL ZONE 44,41.00,0.0,N/A,0.000,0.000,0.000,0.000,0.000,0.000,0.000,0.000,No
 Zone Internal Gains, THERMAL ZONE 38,41.00,0.0,N/A,0.000,0.000,0.000,0.000,0.000,0.000,0.000,0.000,No
 Zone Internal Gains, THERMAL ZONE 23,41.00,0.0,N/A,0.000,0.000,0.000,0.000,0.000,0.000,0.000,0.000,No
 Zone Internal Gains, THERMAL ZONE 8,113.78,0.0,N/A,0.000,0.000,0.000,0.000,0.000,0.000,0.000,0.000,No
 Zone Internal Gains, THERMAL ZONE 21,41.00,0.0,N/A,0.000,0.000,0.000,0.000,0.000,0.000,0.000,0.000,No
 Zone Internal Gains, THERMAL ZONE 34,113.78,0.0,N/A,0.000,0.000,0.000,0.000,0.000,0.000,0.000,0.000,No
 Zone Internal Gains, THERMAL ZONE 26,41.00,0.0,N/A,0.000,0.000,0.000,0.000,0.000,0.000,0.000,0.000,No
 Zone Internal Gains, THERMAL ZONE 40,41.00,0.0,N/A,0.000,0.000,0.000,0.000,0.000,0.000,0.000,0.000,No
 Zone Internal Gains, THERMAL ZONE 16,41.00,0.0,N/A,0.000,0.000,0.000,0.000,0.000,0.000,0.000,0.000,No
 Zone Internal Gains, THERMAL ZONE 4,41.00,0.0,N/A,0.000,0.000,0.000,0.000,0.000,0.000,0.000,0.000,No
 Zone Internal Gains, THERMAL ZONE 13,41.00,0.0,N/A,0.000,0.000,0.000,0.000,0.000,0.000,0.000,0.000,No
 Zone Internal Gains, THERMAL ZONE 30,41.00,0.0,N/A,0.000,0.000,0.000,0.000,0.000,0.000,0.000,0.000,No
 Zone Internal Gains, THERMAL ZONE 3,41.00,0.0,N/A,0.000,0.000,0.000,0.000,0.000,0.000,0.000,0.000,No
 Zone Internal Gains, THERMAL ZONE 25,41.00,0.0,N/A,0.000,0.000,0.000,0.000,0.000,0.000,0.000,0.000,No
 Zone Internal Gains, THERMAL ZONE 5,41.00,0.0,N/A,0.000,0.000,0.000,0.000,0.000,0.000,0.000,0.000,No
 Zone Internal Gains, THERMAL ZONE 28,113.78,0.0,N/A,0.000,0.000,0.000,0.000,0.000,0.000,0.000,0.000,No
 Zone Internal Gains, THERMAL ZONE 1,41.00,0.0,N/A,0.000,0.000,0.000,0.000,0.000,0.000,0.000,0.000,No
 Zone Internal Gains, THERMAL ZONE 11,41.00,0.0,N/A,0.000,0.000,0.000,0.000,0.000,0.000,0.000,0.000,No
 Zone Internal Gains, THERMAL ZONE 12,113.78,0.0,N/A,0.000,0.000,0.000,0.000,0.000,0.000,0.000,0.000,No
 Zone Internal Gains, THERMAL ZONE 6,41.00,0.0,N/A,0.000,0.000,0.000,0.000,0.000,0.000,0.000,0.000,No
 Zone Internal Gains, THERMAL ZONE 10,41.00,0.0,N/A,0.000,0.000,0.000,0.000,0.000,0.000,0.000,0.000,No
 Zone Internal Gains, THERMAL ZONE 19,41.00,0.0,N/A,0.000,0.000,0.000,0.000,0.000,0.000,0.000,0.000,No
 Zone Internal Gains, THERMAL ZONE 39,41.00,0.0,N/A,0.000,0.000,0.000,0.000,0.000,0.000,0.000,0.000,No
 Zone Internal Gains, THERMAL ZONE 43,41.00,0.0,N/A,0.000,0.000,0.000,0.000,0.000,0.000,0.000,0.000,No
 Zone Internal Gains, THERMAL ZONE 42,113.78,0.0,N/A,0.000,0.000,0.000,0.000,0.000,0.000,0.000,0.000,No
 Zone Internal Gains, THERMAL ZONE 9,113.78,0.0,N/A,0.000,0.000,0.000,0.000,0.000,0.000,0.000,0.000,No
 Zone Internal Gains, THERMAL ZONE 14,41.00,0.0,N/A,0.000,0.000,0.000,0.000,0.000,0.000,0.000,0.000,No
 Zone Internal Gains, THERMAL ZONE 20,41.00,0.0,N/A,0.000,0.000,0.000,0.000,0.000,0.000,0.000,0.000,No
 Zone Internal Gains, THERMAL ZONE 2,113.78,0.0,N/A,0.000,0.000,0.000,0.000,0.000,0.000,0.000,0.000,No
! <Shadowing/Sun Position Calculations> [Annual Simulations], Value {days}, Allowable Number Figures in Shadow Overlap {}, Polygon Clipping Algorithm, Sky Diffuse Modeling Algorithm
Shadowing/Sun Position Calculations,20,15000,SutherlandHodgman,SimpleSkyDiffuseModeling
! <RoomAir Model>, Zone Name, Mixing/Mundt/UCSDDV/UCSDCV/UCSDUFI/UCSDUFE/User Defined
RoomAir Model,THERMAL ZONE 7,Mixing/Well-Stirred
RoomAir Model,THERMAL ZONE 32,Mixing/Well-Stirred
RoomAir Model,THERMAL ZONE 37,Mixing/Well-Stirred
RoomAir Model,THERMAL ZONE 35,Mixing/Well-Stirred
RoomAir Model,THERMAL ZONE 29,Mixing/Well-Stirred
RoomAir Model,THERMAL ZONE 17,Mixing/Well-Stirred
RoomAir Model,THERMAL ZONE 36,Mixing/Well-Stirred
RoomAir Model,THERMAL ZONE 31,Mixing/Well-Stirred
RoomAir Model,THERMAL ZONE 27,Mixing/Well-Stirred
RoomAir Model,THERMAL ZONE 22,Mixing/Well-Stirred
RoomAir Model,THERMAL ZONE 18,Mixing/Well-Stirred
RoomAir Model,THERMAL ZONE 41,Mixing/Well-Stirred
RoomAir Model,THERMAL ZONE 15,Mixing/Well-Stirred
RoomAir Model,THERMAL ZONE 45,Mixing/Well-Stirred
RoomAir Model,THERMAL ZONE 33,Mixing/Well-Stirred
RoomAir Model,THERMAL ZONE 24,Mixing/Well-Stirred
RoomAir Model,THERMAL ZONE 44,Mixing/Well-Stirred
RoomAir Model,THERMAL ZONE 38,Mixing/Well-Stirred
RoomAir Model,THERMAL ZONE 23,Mixing/Well-Stirred
RoomAir Model,THERMAL ZONE 8,Mixing/Well-Stirred
RoomAir Model,THERMAL ZONE 21,Mixing/Well-Stirred
RoomAir Model,THERMAL ZONE 34,Mixing/Well-Stirred
RoomAir Model,THERMAL ZONE 26,Mixing/Well-Stirred
RoomAir Model,THERMAL ZONE 40,Mixing/Well-Stirred
RoomAir Model,THERMAL ZONE 16,Mixing/Well-Stirred
RoomAir Model,THERMAL ZONE 4,Mixing/Well-Stirred
RoomAir Model,THERMAL ZONE 13,Mixing/Well-Stirred
RoomAir Model,THERMAL ZONE 30,Mixing/Well-Stirred
RoomAir Model,THERMAL ZONE 3,Mixing/Well-Stirred
RoomAir Model,THERMAL ZONE 25,Mixing/Well-Stirred
RoomAir Model,THERMAL ZONE 5,Mixing/Well-Stirred
RoomAir Model,THERMAL ZONE 28,Mixing/Well-Stirred
RoomAir Model,THERMAL ZONE 1,Mixing/Well-Stirred
RoomAir Model,THERMAL ZONE 11,Mixing/Well-Stirred
RoomAir Model,THERMAL ZONE 12,Mixing/Well-Stirred
RoomAir Model,THERMAL ZONE 6,Mixing/Well-Stirred
RoomAir Model,THERMAL ZONE 10,Mixing/Well-Stirred
RoomAir Model,THERMAL ZONE 19,Mixing/Well-Stirred
RoomAir Model,THERMAL ZONE 39,Mixing/Well-Stirred
RoomAir Model,THERMAL ZONE 43,Mixing/Well-Stirred
RoomAir Model,THERMAL ZONE 42,Mixing/Well-Stirred
RoomAir Model,THERMAL ZONE 9,Mixing/Well-Stirred
RoomAir Model,THERMAL ZONE 14,Mixing/Well-Stirred
RoomAir Model,THERMAL ZONE 20,Mixing/Well-Stirred
RoomAir Model,THERMAL ZONE 2,Mixing/Well-Stirred
! <AirflowNetwork Model:Control>, No Multizone or Distribution/Multizone with Distribution/Multizone without Distribution/Multizone with Distribution only during Fan Operation
AirflowNetwork Model:Control,NoMultizoneOrDistribution
! <Zone Volume Capacitance Multiplier>, Sensible Heat Capacity Multiplier, Moisture Capacity Multiplier, Carbon Dioxide Capacity Multiplier, Generic Contaminant Capacity Multiplier
Zone Volume Capacitance Multiplier,   1.000 ,   1.000,   1.000,   1.000
! <Load Timesteps in Zone Design Calculation Averaging Window>, Value
 Load Timesteps in Zone Design Calculation Averaging Window,    4
! <Heating Sizing Factor Information>, Sizing Factor ID, Value
 Heating Sizing Factor Information, Global,   1.2500    
 Heating Sizing Factor Information, Zone THERMAL ZONE 7,   1.2500    
 Heating Sizing Factor Information, Zone THERMAL ZONE 32,   1.2500    
 Heating Sizing Factor Information, Zone THERMAL ZONE 37,   1.2500    
 Heating Sizing Factor Information, Zone THERMAL ZONE 35,   1.2500    
 Heating Sizing Factor Information, Zone THERMAL ZONE 29,   1.2500    
 Heating Sizing Factor Information, Zone THERMAL ZONE 17,   1.2500    
 Heating Sizing Factor Information, Zone THERMAL ZONE 36,   1.2500    
 Heating Sizing Factor Information, Zone THERMAL ZONE 31,   1.2500    
 Heating Sizing Factor Information, Zone THERMAL ZONE 27,   1.2500    
 Heating Sizing Factor Information, Zone THERMAL ZONE 22,   1.2500    
 Heating Sizing Factor Information, Zone THERMAL ZONE 18,   1.2500    
 Heating Sizing Factor Information, Zone THERMAL ZONE 41,   1.2500    
 Heating Sizing Factor Information, Zone THERMAL ZONE 15,   1.2500    
 Heating Sizing Factor Information, Zone THERMAL ZONE 45,   1.2500    
 Heating Sizing Factor Information, Zone THERMAL ZONE 33,   1.2500    
 Heating Sizing Factor Information, Zone THERMAL ZONE 24,   1.2500    
 Heating Sizing Factor Information, Zone THERMAL ZONE 44,   1.2500    
 Heating Sizing Factor Information, Zone THERMAL ZONE 38,   1.2500    
 Heating Sizing Factor Information, Zone THERMAL ZONE 23,   1.2500    
 Heating Sizing Factor Information, Zone THERMAL ZONE 8,   1.2500    
 Heating Sizing Factor Information, Zone THERMAL ZONE 21,   1.2500    
 Heating Sizing Factor Information, Zone THERMAL ZONE 34,   1.2500    
 Heating Sizing Factor Information, Zone THERMAL ZONE 26,   1.2500    
 Heating Sizing Factor Information, Zone THERMAL ZONE 40,   1.2500    
 Heating Sizing Factor Information, Zone THERMAL ZONE 16,   1.2500    
 Heating Sizing Factor Information, Zone THERMAL ZONE 4,   1.2500    
 Heating Sizing Factor Information, Zone THERMAL ZONE 13,   1.2500    
 Heating Sizing Factor Information, Zone THERMAL ZONE 30,   1.2500    
 Heating Sizing Factor Information, Zone THERMAL ZONE 3,   1.2500    
 Heating Sizing Factor Information, Zone THERMAL ZONE 25,   1.2500    
 Heating Sizing Factor Information, Zone THERMAL ZONE 5,   1.2500    
 Heating Sizing Factor Information, Zone THERMAL ZONE 28,   1.2500    
 Heating Sizing Factor Information, Zone THERMAL ZONE 1,   1.2500    
 Heating Sizing Factor Information, Zone THERMAL ZONE 11,   1.2500    
 Heating Sizing Factor Information, Zone THERMAL ZONE 12,   1.2500    
 Heating Sizing Factor Information, Zone THERMAL ZONE 6,   1.2500    
 Heating Sizing Factor Information, Zone THERMAL ZONE 10,   1.2500    
 Heating Sizing Factor Information, Zone THERMAL ZONE 19,   1.2500    
 Heating Sizing Factor Information, Zone THERMAL ZONE 39,   1.2500    
 Heating Sizing Factor Information, Zone THERMAL ZONE 43,   1.2500    
 Heating Sizing Factor Information, Zone THERMAL ZONE 42,   1.2500    
 Heating Sizing Factor Information, Zone THERMAL ZONE 9,   1.2500    
 Heating Sizing Factor Information, Zone THERMAL ZONE 14,   1.2500    
 Heating Sizing Factor Information, Zone THERMAL ZONE 20,   1.2500    
 Heating Sizing Factor Information, Zone THERMAL ZONE 2,   1.2500    
! <Cooling Sizing Factor Information>, Sizing Factor ID, Value
 Cooling Sizing Factor Information, Global,   1.1500    
 Cooling Sizing Factor Information, Zone THERMAL ZONE 7,   1.1500    
 Cooling Sizing Factor Information, Zone THERMAL ZONE 32,   1.1500    
 Cooling Sizing Factor Information, Zone THERMAL ZONE 37,   1.1500    
 Cooling Sizing Factor Information, Zone THERMAL ZONE 35,   1.1500    
 Cooling Sizing Factor Information, Zone THERMAL ZONE 29,   1.1500    
 Cooling Sizing Factor Information, Zone THERMAL ZONE 17,   1.1500    
 Cooling Sizing Factor Information, Zone THERMAL ZONE 36,   1.1500    
 Cooling Sizing Factor Information, Zone THERMAL ZONE 31,   1.1500    
 Cooling Sizing Factor Information, Zone THERMAL ZONE 27,   1.1500    
 Cooling Sizing Factor Information, Zone THERMAL ZONE 22,   1.1500    
 Cooling Sizing Factor Information, Zone THERMAL ZONE 18,   1.1500    
 Cooling Sizing Factor Information, Zone THERMAL ZONE 41,   1.1500    
 Cooling Sizing Factor Information, Zone THERMAL ZONE 15,   1.1500    
 Cooling Sizing Factor Information, Zone THERMAL ZONE 45,   1.1500    
 Cooling Sizing Factor Information, Zone THERMAL ZONE 33,   1.1500    
 Cooling Sizing Factor Information, Zone THERMAL ZONE 24,   1.1500    
 Cooling Sizing Factor Information, Zone THERMAL ZONE 44,   1.1500    
 Cooling Sizing Factor Information, Zone THERMAL ZONE 38,   1.1500    
 Cooling Sizing Factor Information, Zone THERMAL ZONE 23,   1.1500    
 Cooling Sizing Factor Information, Zone THERMAL ZONE 8,   1.1500    
 Cooling Sizing Factor Information, Zone THERMAL ZONE 21,   1.1500    
 Cooling Sizing Factor Information, Zone THERMAL ZONE 34,   1.1500    
 Cooling Sizing Factor Information, Zone THERMAL ZONE 26,   1.1500    
 Cooling Sizing Factor Information, Zone THERMAL ZONE 40,   1.1500    
 Cooling Sizing Factor Information, Zone THERMAL ZONE 16,   1.1500    
 Cooling Sizing Factor Information, Zone THERMAL ZONE 4,   1.1500    
 Cooling Sizing Factor Information, Zone THERMAL ZONE 13,   1.1500    
 Cooling Sizing Factor Information, Zone THERMAL ZONE 30,   1.1500    
 Cooling Sizing Factor Information, Zone THERMAL ZONE 3,   1.1500    
 Cooling Sizing Factor Information, Zone THERMAL ZONE 25,   1.1500    
 Cooling Sizing Factor Information, Zone THERMAL ZONE 5,   1.1500    
 Cooling Sizing Factor Information, Zone THERMAL ZONE 28,   1.1500    
 Cooling Sizing Factor Information, Zone THERMAL ZONE 1,   1.1500    
 Cooling Sizing Factor Information, Zone THERMAL ZONE 11,   1.1500    
 Cooling Sizing Factor Information, Zone THERMAL ZONE 12,   1.1500    
 Cooling Sizing Factor Information, Zone THERMAL ZONE 6,   1.1500    
 Cooling Sizing Factor Information, Zone THERMAL ZONE 10,   1.1500    
 Cooling Sizing Factor Information, Zone THERMAL ZONE 19,   1.1500    
 Cooling Sizing Factor Information, Zone THERMAL ZONE 39,   1.1500    
 Cooling Sizing Factor Information, Zone THERMAL ZONE 43,   1.1500    
 Cooling Sizing Factor Information, Zone THERMAL ZONE 42,   1.1500    
 Cooling Sizing Factor Information, Zone THERMAL ZONE 9,   1.1500    
 Cooling Sizing Factor Information, Zone THERMAL ZONE 14,   1.1500    
 Cooling Sizing Factor Information, Zone THERMAL ZONE 20,   1.1500    
 Cooling Sizing Factor Information, Zone THERMAL ZONE 2,   1.1500    
! <Zone Sizing Information>, Zone Name, Load Type, Calc Des Load {W}, User Des Load {W}, Calc Des Air Flow Rate {m3/s}, User Des Air Flow Rate {m3/s}, Design Day Name, Date/Time of Peak, Temperature at Peak {C}, Humidity Ratio at Peak {kgWater/kgDryAir}, Floor Area {m2}, # Occupants, Calc Outdoor Air Flow Rate {m3/s}
 Zone Sizing Information, THERMAL ZONE 7, Cooling, 6089.17709, 7002.55366, 0.36833, 0.42358, PHOENIX SKY HARBOR INTL AP ANN CLG .4% CONDNS DB=>MWB, 7/21 11:00:00, 40.64000, 7.19791E-003, 41.00000, 0.00000, 0.00000
 Zone Sizing Information, THERMAL ZONE 7, Heating, 1759.39646, 2199.24557, 9.32067E-002, 0.11651, PHOENIX SKY HARBOR INTL AP ANN HTG 99.6% CONDNS DB, 12/21 24:00:00, 3.70000, 5.13120E-003, 41.00000, 0.00000, 0.00000
 Zone Sizing Information, THERMAL ZONE 32, Cooling, 6818.49279, 7841.26671, 0.41245, 0.47431, PHOENIX SKY HARBOR INTL AP ANN CLG .4% CONDNS DB=>MWB, 7/21 17:15:00, 41.42000, 7.19791E-003, 41.00000, 0.00000, 0.00000
 Zone Sizing Information, THERMAL ZONE 32, Heating, 1762.68075, 2203.35093, 9.33807E-002, 0.11673, PHOENIX SKY HARBOR INTL AP ANN HTG 99.6% CONDNS DB, 12/21 24:00:00, 3.70000, 5.13120E-003, 41.00000, 0.00000, 0.00000
 Zone Sizing Information, THERMAL ZONE 37, Cooling, 2902.64846, 3338.04573, 0.17558, 0.20192, PHOENIX SKY HARBOR INTL AP ANN CLG .4% CONDNS DB=>MWB, 7/21 18:15:00, 40.07000, 7.19791E-003, 41.00000, 0.00000, 0.00000
 Zone Sizing Information, THERMAL ZONE 37, Heating, 1935.54053, 2419.42567, 0.10254, 0.12817, PHOENIX SKY HARBOR INTL AP ANN HTG 99.6% CONDNS DB, 12/21 24:00:00, 3.70000, 5.13120E-003, 41.00000, 0.00000, 0.00000
 Zone Sizing Information, THERMAL ZONE 35, Cooling, 4569.21221, 5254.59404, 0.27639, 0.31785, PHOENIX SKY HARBOR INTL AP ANN CLG .4% CONDNS DB=>MWB, 7/21 14:15:00, 43.40000, 7.19791E-003, 41.00000, 0.00000, 0.00000
 Zone Sizing Information, THERMAL ZONE 35, Heating, 1768.21757, 2210.27197, 9.36740E-002, 0.11709, PHOENIX SKY HARBOR INTL AP ANN HTG 99.6% CONDNS DB, 12/21 24:00:00, 3.70000, 5.13120E-003, 41.00000, 0.00000, 0.00000
 Zone Sizing Information, THERMAL ZONE 29, Cooling, 6088.44812, 7001.71534, 0.36829, 0.42353, PHOENIX SKY HARBOR INTL AP ANN CLG .4% CONDNS DB=>MWB, 7/21 11:00:00, 40.64000, 7.19791E-003, 41.00000, 0.00000, 0.00000
 Zone Sizing Information, THERMAL ZONE 29, Heating, 1763.72851, 2204.66063, 9.34362E-002, 0.11680, PHOENIX SKY HARBOR INTL AP ANN HTG 99.6% CONDNS DB, 12/21 24:00:00, 3.70000, 5.13120E-003, 41.00000, 0.00000, 0.00000
 Zone Sizing Information, THERMAL ZONE 17, Cooling, 5961.05072, 6855.20833, 0.36058, 0.41467, PHOENIX SKY HARBOR INTL AP ANN CLG .4% CONDNS DB=>MWB, 7/21 11:00:00, 40.64000, 7.19791E-003, 41.00000, 0.00000, 0.00000
 Zone Sizing Information, THERMAL ZONE 17, Heating, 1755.24380, 2194.05475, 9.29867E-002, 0.11623, PHOENIX SKY HARBOR INTL AP ANN HTG 99.6% CONDNS DB, 12/21 24:00:00, 3.70000, 5.13120E-003, 41.00000, 0.00000, 0.00000
 Zone Sizing Information, THERMAL ZONE 36, Cooling, 1383.55010, 1591.08262, 8.36902E-002, 9.62437E-002, PHOENIX SKY HARBOR INTL AP ANN CLG .4% CONDNS DB=>MWB, 7/21 17:15:00, 41.42000, 7.19791E-003, 113.77778, 0.00000, 0.00000
 Zone Sizing Information, THERMAL ZONE 36, Heating, 637.50585, 796.88231, 3.37728E-002, 4.22160E-002, PHOENIX SKY HARBOR INTL AP ANN HTG 99.6% CONDNS DB, 12/21 24:00:00, 3.70000, 5.13120E-003, 113.77778, 0.00000, 0.00000
 Zone Sizing Information, THERMAL ZONE 31, Cooling, 6816.86816, 7839.39839, 0.41235, 0.47420, PHOENIX SKY HARBOR INTL AP ANN CLG .4% CONDNS DB=>MWB, 7/21 17:15:00, 41.42000, 7.19791E-003, 41.00000, 0.00000, 0.00000
 Zone Sizing Information, THERMAL ZONE 31, Heating, 1755.24609, 2194.05762, 9.29868E-002, 0.11623, PHOENIX SKY HARBOR INTL AP ANN HTG 99.6% CONDNS DB, 12/21 24:00:00, 3.70000, 5.13120E-003, 41.00000, 0.00000, 0.00000
 Zone Sizing Information, THERMAL ZONE 27, Cooling, 6806.92995, 7827.96944, 0.41175, 0.47351, PHOENIX SKY HARBOR INTL AP ANN CLG .4% CONDNS DB=>MWB, 7/21 17:15:00, 41.42000, 7.19791E-003, 41.00000, 0.00000, 0.00000
 Zone Sizing Information, THERMAL ZONE 27, Heating, 1751.62466, 2189.53082, 9.27950E-002, 0.11599, PHOENIX SKY HARBOR INTL AP ANN HTG 99.6% CONDNS DB, 12/21 24:00:00, 3.70000, 5.13120E-003, 41.00000, 0.00000, 0.00000
 Zone Sizing Information, THERMAL ZONE 22, Cooling, 1329.71112, 1529.16779, 8.04335E-002, 9.24985E-002, PHOENIX SKY HARBOR INTL AP ANN CLG .4% CONDNS DB=>MWB, 7/21 17:15:00, 41.42000, 7.19791E-003, 113.77778, 0.00000, 0.00000
 Zone Sizing Information, THERMAL ZONE 22, Heating, 635.49162, 794.36452, 3.36661E-002, 4.20827E-002, PHOENIX SKY HARBOR INTL AP ANN HTG 99.6% CONDNS DB, 12/21 24:00:00, 3.70000, 5.13120E-003, 113.77778, 0.00000, 0.00000
 Zone Sizing Information, THERMAL ZONE 18, Cooling, 4547.33266, 5229.43256, 0.27507, 0.31633, PHOENIX SKY HARBOR INTL AP ANN CLG .4% CONDNS DB=>MWB, 7/21 14:15:00, 43.40000, 7.19791E-003, 41.00000, 0.00000, 0.00000
 Zone Sizing Information, THERMAL ZONE 18, Heating, 1749.95235, 2187.44044, 9.27064E-002, 0.11588, PHOENIX SKY HARBOR INTL AP ANN HTG 99.6% CONDNS DB, 12/21 24:00:00, 3.70000, 5.13120E-003, 41.00000, 0.00000, 0.00000
 Zone Sizing Information, THERMAL ZONE 41, Cooling, 4890.27620, 5623.81763, 0.29581, 0.34018, PHOENIX SKY HARBOR INTL AP ANN CLG .4% CONDNS DB=>MWB, 7/21 10:30:00, 39.74000, 7.19791E-003, 41.00000, 0.00000, 0.00000
 Zone Sizing Information, THERMAL ZONE 41, Heating, 1946.26241, 2432.82801, 0.10311, 0.12888, PHOENIX SKY HARBOR INTL AP ANN HTG 99.6% CONDNS DB, 12/21 24:00:00, 3.70000, 5.13120E-003, 41.00000, 0.00000, 0.00000
 Zone Sizing Information, THERMAL ZONE 15, Cooling, 6076.46209, 6987.93140, 0.36756, 0.42270, PHOENIX SKY HARBOR INTL AP ANN CLG .4% CONDNS DB=>MWB, 7/21 11:00:00, 40.64000, 7.19791E-003, 41.00000, 0.00000, 0.00000
 Zone Sizing Information, THERMAL ZONE 15, Heating, 1935.60783, 2419.50979, 0.10254, 0.12818, PHOENIX SKY HARBOR INTL AP ANN HTG 99.6% CONDNS DB, 12/21 24:00:00, 3.70000, 5.13120E-003, 41.00000, 0.00000, 0.00000
 Zone Sizing Information, THERMAL ZONE 45, Cooling, 4573.67451, 5259.72568, 0.27666, 0.31816, PHOENIX SKY HARBOR INTL AP ANN CLG .4% CONDNS DB=>MWB, 7/21 14:15:00, 43.40000, 7.19791E-003, 41.00000, 0.00000, 0.00000
 Zone Sizing Information, THERMAL ZONE 45, Heating, 1780.58668, 2225.73335, 9.43293E-002, 0.11791, PHOENIX SKY HARBOR INTL AP ANN HTG 99.6% CONDNS DB, 12/21 24:00:00, 3.70000, 5.13120E-003, 41.00000, 0.00000, 0.00000
 Zone Sizing Information, THERMAL ZONE 33, Cooling, 6079.37262, 6991.27851, 0.36774, 0.42290, PHOENIX SKY HARBOR INTL AP ANN CLG .4% CONDNS DB=>MWB, 7/21 11:00:00, 40.64000, 7.19791E-003, 41.00000, 0.00000, 0.00000
 Zone Sizing Information, THERMAL ZONE 33, Heating, 1749.90746, 2187.38433, 9.27040E-002, 0.11588, PHOENIX SKY HARBOR INTL AP ANN HTG 99.6% CONDNS DB, 12/21 24:00:00, 3.70000, 5.13120E-003, 41.00000, 0.00000, 0.00000
 Zone Sizing Information, THERMAL ZONE 24, Cooling, 2787.82869, 3206.00299, 0.16863, 0.19393, PHOENIX SKY HARBOR INTL AP ANN CLG .4% CONDNS DB=>MWB, 7/21 18:15:00, 40.07000, 7.19791E-003, 41.00000, 0.00000, 0.00000
 Zone Sizing Information, THERMAL ZONE 24, Heating, 1780.58668, 2225.73335, 9.43293E-002, 0.11791, PHOENIX SKY HARBOR INTL AP ANN HTG 99.6% CONDNS DB, 12/21 24:00:00, 3.70000, 5.13120E-003, 41.00000, 0.00000, 0.00000
 Zone Sizing Information, THERMAL ZONE 44, Cooling, 6877.56257, 7909.19696, 0.41602, 0.47842, PHOENIX SKY HARBOR INTL AP ANN CLG .4% CONDNS DB=>MWB, 7/21 17:15:00, 41.42000, 7.19791E-003, 41.00000, 0.00000, 0.00000
 Zone Sizing Information, THERMAL ZONE 44, Heating, 1932.91492, 2416.14365, 0.10240, 0.12800, PHOENIX SKY HARBOR INTL AP ANN HTG 99.6% CONDNS DB, 12/21 24:00:00, 3.70000, 5.13120E-003, 41.00000, 0.00000, 0.00000
 Zone Sizing Information, THERMAL ZONE 38, Cooling, 5677.60111, 6529.24127, 0.34343, 0.39495, PHOENIX SKY HARBOR INTL AP ANN CLG .4% CONDNS DB=>MWB, 7/21 16:45:00, 41.96000, 7.19791E-003, 41.00000, 0.00000, 0.00000
 Zone Sizing Information, THERMAL ZONE 38, Heating, 1951.20533, 2439.00667, 0.10337, 0.12921, PHOENIX SKY HARBOR INTL AP ANN HTG 99.6% CONDNS DB, 12/21 24:00:00, 3.70000, 5.13120E-003, 41.00000, 0.00000, 0.00000
 Zone Sizing Information, THERMAL ZONE 23, Cooling, 6719.34418, 7727.24581, 0.40645, 0.46742, PHOENIX SKY HARBOR INTL AP ANN CLG .4% CONDNS DB=>MWB, 7/21 17:15:00, 41.42000, 7.19791E-003, 41.00000, 0.00000, 0.00000
 Zone Sizing Information, THERMAL ZONE 23, Heating, 1758.44432, 2198.05540, 9.31563E-002, 0.11645, PHOENIX SKY HARBOR INTL AP ANN HTG 99.6% CONDNS DB, 12/21 24:00:00, 3.70000, 5.13120E-003, 41.00000, 0.00000, 0.00000
 Zone Sizing Information, THERMAL ZONE 8, Cooling, 1379.80208, 1586.77239, 8.34635E-002, 9.59830E-002, PHOENIX SKY HARBOR INTL AP ANN CLG .4% CONDNS DB=>MWB, 7/21 17:15:00, 41.42000, 7.19791E-003, 113.77778, 0.00000, 0.00000
 Zone Sizing Information, THERMAL ZONE 8, Heating, 630.99706, 788.74632, 3.34280E-002, 4.17850E-002, PHOENIX SKY HARBOR INTL AP ANN HTG 99.6% CONDNS DB, 12/21 24:00:00, 3.70000, 5.13120E-003, 113.77778, 0.00000, 0.00000
 Zone Sizing Information, THERMAL ZONE 21, Cooling, 2780.49656, 3197.57105, 0.16819, 0.19342, PHOENIX SKY HARBOR INTL AP ANN CLG .4% CONDNS DB=>MWB, 7/21 18:15:00, 40.07000, 7.19791E-003, 41.00000, 0.00000, 0.00000
 Zone Sizing Information, THERMAL ZONE 21, Heating, 1763.70154, 2204.62693, 9.34348E-002, 0.11679, PHOENIX SKY HARBOR INTL AP ANN HTG 99.6% CONDNS DB, 12/21 24:00:00, 3.70000, 5.13120E-003, 41.00000, 0.00000, 0.00000
 Zone Sizing Information, THERMAL ZONE 34, Cooling, 1655.40616, 1903.71709, 0.10013, 0.11515, PHOENIX SKY HARBOR INTL AP ANN CLG .4% CONDNS DB=>MWB, 7/21 18:00:00, 40.52000, 7.19791E-003, 113.77778, 0.00000, 0.00000
 Zone Sizing Information, THERMAL ZONE 34, Heating, 1083.30303, 1354.12879, 5.73896E-002, 7.17370E-002, PHOENIX SKY HARBOR INTL AP ANN HTG 99.6% CONDNS DB, 12/21 24:00:00, 3.70000, 5.13120E-003, 113.77778, 0.00000, 0.00000
 Zone Sizing Information, THERMAL ZONE 26, Cooling, 1558.42407, 1792.18768, 9.42682E-002, 0.10841, PHOENIX SKY HARBOR INTL AP ANN CLG .4% CONDNS DB=>MWB, 7/21 18:15:00, 40.07000, 7.19791E-003, 41.00000, 0.00000, 0.00000
 Zone Sizing Information, THERMAL ZONE 26, Heating, 1946.37726, 2432.97158, 0.10311, 0.12889, PHOENIX SKY HARBOR INTL AP ANN HTG 99.6% CONDNS DB, 12/21 24:00:00, 3.70000, 5.13120E-003, 41.00000, 0.00000, 0.00000
 Zone Sizing Information, THERMAL ZONE 40, Cooling, 2773.28948, 3189.28290, 0.16775, 0.19292, PHOENIX SKY HARBOR INTL AP ANN CLG .4% CONDNS DB=>MWB, 7/21 18:15:00, 40.07000, 7.19791E-003, 41.00000, 0.00000, 0.00000
 Zone Sizing Information, THERMAL ZONE 40, Heating, 1754.66070, 2193.32588, 9.29558E-002, 0.11619, PHOENIX SKY HARBOR INTL AP ANN HTG 99.6% CONDNS DB, 12/21 24:00:00, 3.70000, 5.13120E-003, 41.00000, 0.00000, 0.00000
 Zone Sizing Information, THERMAL ZONE 16, Cooling, 4439.30956, 5105.20600, 0.26853, 0.30881, PHOENIX SKY HARBOR INTL AP ANN CLG .4% CONDNS DB=>MWB, 7/21 14:30:00, 43.40000, 7.19791E-003, 41.00000, 0.00000, 0.00000
 Zone Sizing Information, THERMAL ZONE 16, Heating, 1755.32644, 2194.15805, 9.29911E-002, 0.11624, PHOENIX SKY HARBOR INTL AP ANN HTG 99.6% CONDNS DB, 12/21 24:00:00, 3.70000, 5.13120E-003, 41.00000, 0.00000, 0.00000
 Zone Sizing Information, THERMAL ZONE 4, Cooling, 6818.49196, 7841.26575, 0.41245, 0.47431, PHOENIX SKY HARBOR INTL AP ANN CLG .4% CONDNS DB=>MWB, 7/21 17:15:00, 41.42000, 7.19791E-003, 41.00000, 0.00000, 0.00000
 Zone Sizing Information, THERMAL ZONE 4, Heating, 1766.56009, 2208.20011, 9.35862E-002, 0.11698, PHOENIX SKY HARBOR INTL AP ANN HTG 99.6% CONDNS DB, 12/21 24:00:00, 3.70000, 5.13120E-003, 41.00000, 0.00000, 0.00000
 Zone Sizing Information, THERMAL ZONE 13, Cooling, 2782.67157, 3200.07231, 0.16832, 0.19357, PHOENIX SKY HARBOR INTL AP ANN CLG .4% CONDNS DB=>MWB, 7/21 18:15:00, 40.07000, 7.19791E-003, 41.00000, 0.00000, 0.00000
 Zone Sizing Information, THERMAL ZONE 13, Heating, 1768.21757, 2210.27197, 9.36740E-002, 0.11709, PHOENIX SKY HARBOR INTL AP ANN HTG 99.6% CONDNS DB, 12/21 24:00:00, 3.70000, 5.13120E-003, 41.00000, 0.00000, 0.00000
 Zone Sizing Information, THERMAL ZONE 30, Cooling, 6088.95090, 7002.29353, 0.36832, 0.42356, PHOENIX SKY HARBOR INTL AP ANN CLG .4% CONDNS DB=>MWB, 7/21 11:00:00, 40.64000, 7.19791E-003, 41.00000, 0.00000, 0.00000
 Zone Sizing Information, THERMAL ZONE 30, Heating, 1754.64488, 2193.30610, 9.29550E-002, 0.11619, PHOENIX SKY HARBOR INTL AP ANN HTG 99.6% CONDNS DB, 12/21 24:00:00, 3.70000, 5.13120E-003, 41.00000, 0.00000, 0.00000
 Zone Sizing Information, THERMAL ZONE 3, Cooling, 2760.55765, 3174.64129, 0.16698, 0.19203, PHOENIX SKY HARBOR INTL AP ANN CLG .4% CONDNS DB=>MWB, 7/21 18:15:00, 40.07000, 7.19791E-003, 41.00000, 0.00000, 0.00000
 Zone Sizing Information, THERMAL ZONE 3, Heating, 1749.95235, 2187.44044, 9.27064E-002, 0.11588, PHOENIX SKY HARBOR INTL AP ANN HTG 99.6% CONDNS DB, 12/21 24:00:00, 3.70000, 5.13120E-003, 41.00000, 0.00000, 0.00000
 Zone Sizing Information, THERMAL ZONE 25, Cooling, 4565.27347, 5250.06448, 0.27615, 0.31757, PHOENIX SKY HARBOR INTL AP ANN CLG .4% CONDNS DB=>MWB, 7/21 14:15:00, 43.40000, 7.19791E-003, 41.00000, 0.00000, 0.00000
 Zone Sizing Information, THERMAL ZONE 25, Heating, 1759.38901, 2199.23626, 9.32063E-002, 0.11651, PHOENIX SKY HARBOR INTL AP ANN HTG 99.6% CONDNS DB, 12/21 24:00:00, 3.70000, 5.13120E-003, 41.00000, 0.00000, 0.00000
 Zone Sizing Information, THERMAL ZONE 5, Cooling, 4614.80314, 5307.02361, 0.27915, 0.32102, PHOENIX SKY HARBOR INTL AP ANN CLG .4% CONDNS DB=>MWB, 7/21 14:15:00, 43.40000, 7.19791E-003, 41.00000, 0.00000, 0.00000
 Zone Sizing Information, THERMAL ZONE 5, Heating, 1935.54053, 2419.42567, 0.10254, 0.12817, PHOENIX SKY HARBOR INTL AP ANN HTG 99.6% CONDNS DB, 12/21 24:00:00, 3.70000, 5.13120E-003, 41.00000, 0.00000, 0.00000
 Zone Sizing Information, THERMAL ZONE 28, Cooling, 1400.46926, 1610.53965, 8.47136E-002, 9.74207E-002, PHOENIX SKY HARBOR INTL AP ANN CLG .4% CONDNS DB=>MWB, 7/21 17:15:00, 41.42000, 7.19791E-003, 113.77778, 0.00000, 0.00000
 Zone Sizing Information, THERMAL ZONE 28, Heating, 676.96644, 846.20805, 3.58633E-002, 4.48292E-002, PHOENIX SKY HARBOR INTL AP ANN HTG 99.6% CONDNS DB, 12/21 24:00:00, 3.70000, 5.13120E-003, 113.77778, 0.00000, 0.00000
 Zone Sizing Information, THERMAL ZONE 1, Cooling, 3346.28735, 3848.23045, 0.20242, 0.23278, PHOENIX SKY HARBOR INTL AP ANN CLG .4% CONDNS DB=>MWB, 7/21 13:45:00, 43.25000, 7.19792E-003, 41.00000, 0.00000, 0.00000
 Zone Sizing Information, THERMAL ZONE 1, Heating, 1946.37726, 2432.97158, 0.10311, 0.12889, PHOENIX SKY HARBOR INTL AP ANN HTG 99.6% CONDNS DB, 12/21 24:00:00, 3.70000, 5.13120E-003, 41.00000, 0.00000, 0.00000
 Zone Sizing Information, THERMAL ZONE 11, Cooling, 6090.40416, 7003.96478, 0.36841, 0.42367, PHOENIX SKY HARBOR INTL AP ANN CLG .4% CONDNS DB=>MWB, 7/21 11:00:00, 40.64000, 7.19791E-003, 41.00000, 0.00000, 0.00000
 Zone Sizing Information, THERMAL ZONE 11, Heating, 1780.64500, 2225.80625, 9.43324E-002, 0.11792, PHOENIX SKY HARBOR INTL AP ANN HTG 99.6% CONDNS DB, 12/21 24:00:00, 3.70000, 5.13120E-003, 41.00000, 0.00000, 0.00000
 Zone Sizing Information, THERMAL ZONE 12, Heating, 1442.88048, 1803.60060, 7.64388E-002, 9.55485E-002, PHOENIX SKY HARBOR INTL AP ANN HTG 99.6% CONDNS DB, 12/21 24:00:00, 3.70000, 5.13120E-003, 113.77778, 0.00000, 0.00000
 Zone Sizing Information, THERMAL ZONE 6, Cooling, 6818.27290, 7841.01384, 0.41243, 0.47430, PHOENIX SKY HARBOR INTL AP ANN CLG .4% CONDNS DB=>MWB, 7/21 17:15:00, 41.42000, 7.19791E-003, 41.00000, 0.00000, 0.00000
 Zone Sizing Information, THERMAL ZONE 6, Heating, 1759.10214, 2198.87768, 9.31911E-002, 0.11649, PHOENIX SKY HARBOR INTL AP ANN HTG 99.6% CONDNS DB, 12/21 24:00:00, 3.70000, 5.13120E-003, 41.00000, 0.00000, 0.00000
 Zone Sizing Information, THERMAL ZONE 10, Cooling, 4561.41256, 5245.62445, 0.27592, 0.31730, PHOENIX SKY HARBOR INTL AP ANN CLG .4% CONDNS DB=>MWB, 7/21 14:15:00, 43.40000, 7.19791E-003, 41.00000, 0.00000, 0.00000
 Zone Sizing Information, THERMAL ZONE 10, Heating, 1754.66070, 2193.32588, 9.29558E-002, 0.11619, PHOENIX SKY HARBOR INTL AP ANN HTG 99.6% CONDNS DB, 12/21 24:00:00, 3.70000, 5.13120E-003, 41.00000, 0.00000, 0.00000
 Zone Sizing Information, THERMAL ZONE 19, Cooling, 2668.83753, 3069.16315, 0.16144, 0.18565, PHOENIX SKY HARBOR INTL AP ANN CLG .4% CONDNS DB=>MWB, 7/21 18:15:00, 40.07000, 7.19791E-003, 41.00000, 0.00000, 0.00000
 Zone Sizing Information, THERMAL ZONE 19, Heating, 1755.32644, 2194.15805, 9.29911E-002, 0.11624, PHOENIX SKY HARBOR INTL AP ANN HTG 99.6% CONDNS DB, 12/21 24:00:00, 3.70000, 5.13120E-003, 41.00000, 0.00000, 0.00000
 Zone Sizing Information, THERMAL ZONE 39, Cooling, 4567.49693, 5252.62147, 0.27629, 0.31773, PHOENIX SKY HARBOR INTL AP ANN CLG .4% CONDNS DB=>MWB, 7/21 14:15:00, 43.40000, 7.19791E-003, 41.00000, 0.00000, 0.00000
 Zone Sizing Information, THERMAL ZONE 39, Heating, 1763.70154, 2204.62693, 9.34348E-002, 0.11679, PHOENIX SKY HARBOR INTL AP ANN HTG 99.6% CONDNS DB, 12/21 24:00:00, 3.70000, 5.13120E-003, 41.00000, 0.00000, 0.00000
 Zone Sizing Information, THERMAL ZONE 43, Cooling, 6087.78401, 7000.95161, 0.36825, 0.42348, PHOENIX SKY HARBOR INTL AP ANN CLG .4% CONDNS DB=>MWB, 7/21 11:00:00, 40.64000, 7.19791E-003, 41.00000, 0.00000, 0.00000
 Zone Sizing Information, THERMAL ZONE 43, Heating, 1768.26141, 2210.32676, 9.36763E-002, 0.11710, PHOENIX SKY HARBOR INTL AP ANN HTG 99.6% CONDNS DB, 12/21 24:00:00, 3.70000, 5.13120E-003, 41.00000, 0.00000, 0.00000
 Zone Sizing Information, THERMAL ZONE 42, Cooling, 988.94117, 1137.28234, 5.98205E-002, 6.87936E-002, PHOENIX SKY HARBOR INTL AP ANN CLG .4% CONDNS DB=>MWB, 7/21 17:30:00, 41.12000, 7.19791E-003, 113.77778, 0.00000, 0.00000
 Zone Sizing Information, THERMAL ZONE 42, Heating, 699.51695, 874.39619, 3.70580E-002, 4.63225E-002, PHOENIX SKY HARBOR INTL AP ANN HTG 99.6% CONDNS DB, 12/21 24:00:00, 3.70000, 5.13120E-003, 113.77778, 0.00000, 0.00000
 Zone Sizing Information, THERMAL ZONE 9, Cooling, 1381.05607, 1588.21448, 8.35393E-002, 9.60702E-002, PHOENIX SKY HARBOR INTL AP ANN CLG .4% CONDNS DB=>MWB, 7/21 17:15:00, 41.42000, 7.19791E-003, 113.77778, 0.00000, 0.00000
 Zone Sizing Information, THERMAL ZONE 9, Heating, 632.49585, 790.61982, 3.35074E-002, 4.18843E-002, PHOENIX SKY HARBOR INTL AP ANN HTG 99.6% CONDNS DB, 12/21 24:00:00, 3.70000, 5.13120E-003, 113.77778, 0.00000, 0.00000
 Zone Sizing Information, THERMAL ZONE 14, Cooling, 6820.89556, 7844.02990, 0.41259, 0.47448, PHOENIX SKY HARBOR INTL AP ANN CLG .4% CONDNS DB=>MWB, 7/21 17:15:00, 41.42000, 7.19791E-003, 41.00000, 0.00000, 0.00000
 Zone Sizing Information, THERMAL ZONE 14, Heating, 1778.37196, 2222.96495, 9.42119E-002, 0.11776, PHOENIX SKY HARBOR INTL AP ANN HTG 99.6% CONDNS DB, 12/21 24:00:00, 3.70000, 5.13120E-003, 41.00000, 0.00000, 0.00000
 Zone Sizing Information, THERMAL ZONE 20, Cooling, 2777.74021, 3194.40124, 0.16802, 0.19323, PHOENIX SKY HARBOR INTL AP ANN CLG .4% CONDNS DB=>MWB, 7/21 18:15:00, 40.07000, 7.19791E-003, 41.00000, 0.00000, 0.00000
 Zone Sizing Information, THERMAL ZONE 20, Heating, 1759.38901, 2199.23626, 9.32063E-002, 0.11651, PHOENIX SKY HARBOR INTL AP ANN HTG 99.6% CONDNS DB, 12/21 24:00:00, 3.70000, 5.13120E-003, 41.00000, 0.00000, 0.00000
 Zone Sizing Information, THERMAL ZONE 2, Cooling, 1374.43168, 1580.59644, 8.31386E-002, 9.56094E-002, PHOENIX SKY HARBOR INTL AP ANN CLG .4% CONDNS DB=>MWB, 7/21 17:15:00, 41.42000, 7.19791E-003, 113.77778, 0.00000, 0.00000
 Zone Sizing Information, THERMAL ZONE 2, Heating, 630.33865, 787.92331, 3.33931E-002, 4.17414E-002, PHOENIX SKY HARBOR INTL AP ANN HTG 99.6% CONDNS DB, 12/21 24:00:00, 3.70000, 5.13120E-003, 113.77778, 0.00000, 0.00000
! <System Sizing Information>, System Name, Field Description, Value
 System Sizing Information, AIR LOOP HVAC 1, Calculated Cooling Design Air Flow Rate [m3/s], 13.08457
 System Sizing Information, AIR LOOP HVAC 1, User Cooling Design Air Flow Rate [m3/s], 13.08457
 System Sizing Information, AIR LOOP HVAC 1, Calculated Heating Design Air Flow Rate [m3/s], 4.76304
 System Sizing Information, AIR LOOP HVAC 1, User Heating Design Air Flow Rate [m3/s], 4.76304
! <Component Sizing Information>, Component Type, Component Name, Input Field Description, Value
 Component Sizing Information, AirTerminal:SingleDuct:VAV:Reheat, AIR TERMINAL SINGLE DUCT VAV REHEAT 5, Maximum Air Flow Rate [m3/s], 0.42358
 Component Sizing Information, AirTerminal:SingleDuct:VAV:Reheat, AIR TERMINAL SINGLE DUCT VAV REHEAT 5, Maximum Flow per Zone Floor Area during Reheat [m3/s-m2], 3.09937E-003
 Component Sizing Information, AirTerminal:SingleDuct:VAV:Reheat, AIR TERMINAL SINGLE DUCT VAV REHEAT 5, Maximum Flow Fraction during Reheat [], 0.30000
 Component Sizing Information, AirTerminal:SingleDuct:VAV:Reheat, AIR TERMINAL SINGLE DUCT VAV REHEAT 5, Maximum Reheat Water Flow Rate [m3/s], 9.00934E-005
 Component Sizing Information, AirTerminal:SingleDuct:VAV:Reheat, AIR TERMINAL SINGLE DUCT VAV REHEAT 5, Reheat Coil Sizing Air Volume Flow Rate [m3/s], 0.12707
 Component Sizing Information, Coil:Heating:Water, COIL HEATING WATER 6, Maximum Water Flow Rate [m3/s], 9.00934E-005
 Component Sizing Information, Coil:Heating:Water, COIL HEATING WATER 6, Design Coil Load [W], 4147.02559
 Component Sizing Information, Coil:Heating:Water, COIL HEATING WATER 6, U-Factor Times Area Value [W/K], 289.51048
! <Water Heating Coil Capacity Information>,Component Type,Name,Nominal Total Capacity {W}
Water Heating Coil Capacity Information,Coil:Heating:Water,COIL HEATING WATER 6,7426.23
 Component Sizing Information, AirTerminal:SingleDuct:VAV:Reheat, AIR TERMINAL SINGLE DUCT VAV REHEAT 24, Maximum Air Flow Rate [m3/s], 0.47431
 Component Sizing Information, AirTerminal:SingleDuct:VAV:Reheat, AIR TERMINAL SINGLE DUCT VAV REHEAT 24, Maximum Flow per Zone Floor Area during Reheat [m3/s-m2], 3.47059E-003
 Component Sizing Information, AirTerminal:SingleDuct:VAV:Reheat, AIR TERMINAL SINGLE DUCT VAV REHEAT 24, Maximum Flow Fraction during Reheat [], 0.30000
 Component Sizing Information, AirTerminal:SingleDuct:VAV:Reheat, AIR TERMINAL SINGLE DUCT VAV REHEAT 24, Maximum Reheat Water Flow Rate [m3/s], 1.00884E-004
 Component Sizing Information, AirTerminal:SingleDuct:VAV:Reheat, AIR TERMINAL SINGLE DUCT VAV REHEAT 24, Reheat Coil Sizing Air Volume Flow Rate [m3/s], 0.14229
 Component Sizing Information, Coil:Heating:Water, COIL HEATING WATER 25, Maximum Water Flow Rate [m3/s], 1.00884E-004
 Component Sizing Information, Coil:Heating:Water, COIL HEATING WATER 25, Design Coil Load [W], 4643.72504
 Component Sizing Information, Coil:Heating:Water, COIL HEATING WATER 25, U-Factor Times Area Value [W/K], 324.18587
Water Heating Coil Capacity Information,Coil:Heating:Water,COIL HEATING WATER 25,8315.69
 Component Sizing Information, AirTerminal:SingleDuct:VAV:Reheat, AIR TERMINAL SINGLE DUCT VAV REHEAT 17, Maximum Air Flow Rate [m3/s], 0.20192
 Component Sizing Information, AirTerminal:SingleDuct:VAV:Reheat, AIR TERMINAL SINGLE DUCT VAV REHEAT 17, Maximum Flow per Zone Floor Area during Reheat [m3/s-m2], 2.03200E-003
 Component Sizing Information, AirTerminal:SingleDuct:VAV:Reheat, AIR TERMINAL SINGLE DUCT VAV REHEAT 17, Maximum Flow Fraction during Reheat [], 0.41261
 Component Sizing Information, AirTerminal:SingleDuct:VAV:Reheat, AIR TERMINAL SINGLE DUCT VAV REHEAT 17, Maximum Reheat Water Flow Rate [m3/s], 9.08722E-005
 Component Sizing Information, AirTerminal:SingleDuct:VAV:Reheat, AIR TERMINAL SINGLE DUCT VAV REHEAT 17, Reheat Coil Sizing Air Volume Flow Rate [m3/s], 0.12817
 Component Sizing Information, Coil:Heating:Water, COIL HEATING WATER 18, Maximum Water Flow Rate [m3/s], 9.08722E-005
 Component Sizing Information, Coil:Heating:Water, COIL HEATING WATER 18, Design Coil Load [W], 4182.87643
 Component Sizing Information, Coil:Heating:Water, COIL HEATING WATER 18, U-Factor Times Area Value [W/K], 138.00669
Water Heating Coil Capacity Information,Coil:Heating:Water,COIL HEATING WATER 18,5289.96
 Component Sizing Information, AirTerminal:SingleDuct:VAV:Reheat, AIR TERMINAL SINGLE DUCT VAV REHEAT 8, Maximum Air Flow Rate [m3/s], 0.31785
 Component Sizing Information, AirTerminal:SingleDuct:VAV:Reheat, AIR TERMINAL SINGLE DUCT VAV REHEAT 8, Maximum Flow per Zone Floor Area during Reheat [m3/s-m2], 2.32571E-003
 Component Sizing Information, AirTerminal:SingleDuct:VAV:Reheat, AIR TERMINAL SINGLE DUCT VAV REHEAT 8, Maximum Flow Fraction during Reheat [], 0.30000
 Component Sizing Information, AirTerminal:SingleDuct:VAV:Reheat, AIR TERMINAL SINGLE DUCT VAV REHEAT 8, Maximum Reheat Water Flow Rate [m3/s], 8.30165E-005
 Component Sizing Information, AirTerminal:SingleDuct:VAV:Reheat, AIR TERMINAL SINGLE DUCT VAV REHEAT 8, Reheat Coil Sizing Air Volume Flow Rate [m3/s], 0.11709
 Component Sizing Information, Coil:Heating:Water, COIL HEATING WATER 9, Maximum Water Flow Rate [m3/s], 8.30165E-005
 Component Sizing Information, Coil:Heating:Water, COIL HEATING WATER 9, Design Coil Load [W], 3821.27653
 Component Sizing Information, Coil:Heating:Water, COIL HEATING WATER 9, U-Factor Times Area Value [W/K], 217.24361
Water Heating Coil Capacity Information,Coil:Heating:Water,COIL HEATING WATER 9,6328.17
 Component Sizing Information, AirTerminal:SingleDuct:VAV:Reheat, AIR TERMINAL SINGLE DUCT VAV REHEAT 45, Maximum Air Flow Rate [m3/s], 0.42353
 Component Sizing Information, AirTerminal:SingleDuct:VAV:Reheat, AIR TERMINAL SINGLE DUCT VAV REHEAT 45, Maximum Flow per Zone Floor Area during Reheat [m3/s-m2], 3.09900E-003
 Component Sizing Information, AirTerminal:SingleDuct:VAV:Reheat, AIR TERMINAL SINGLE DUCT VAV REHEAT 45, Maximum Flow Fraction during Reheat [], 0.30000
 Component Sizing Information, AirTerminal:SingleDuct:VAV:Reheat, AIR TERMINAL SINGLE DUCT VAV REHEAT 45, Maximum Reheat Water Flow Rate [m3/s], 9.00826E-005
 Component Sizing Information, AirTerminal:SingleDuct:VAV:Reheat, AIR TERMINAL SINGLE DUCT VAV REHEAT 45, Reheat Coil Sizing Air Volume Flow Rate [m3/s], 0.12706
 Component Sizing Information, Coil:Heating:Water, COIL HEATING WATER 46, Maximum Water Flow Rate [m3/s], 9.00826E-005
 Component Sizing Information, Coil:Heating:Water, COIL HEATING WATER 46, Design Coil Load [W], 4146.52913
 Component Sizing Information, Coil:Heating:Water, COIL HEATING WATER 46, U-Factor Times Area Value [W/K], 289.47582
Water Heating Coil Capacity Information,Coil:Heating:Water,COIL HEATING WATER 46,7425.34
 Component Sizing Information, AirTerminal:SingleDuct:VAV:Reheat, AIR TERMINAL SINGLE DUCT VAV REHEAT 21, Maximum Air Flow Rate [m3/s], 0.41467
 Component Sizing Information, AirTerminal:SingleDuct:VAV:Reheat, AIR TERMINAL SINGLE DUCT VAV REHEAT 21, Maximum Flow per Zone Floor Area during Reheat [m3/s-m2], 3.03415E-003
 Component Sizing Information, AirTerminal:SingleDuct:VAV:Reheat, AIR TERMINAL SINGLE DUCT VAV REHEAT 21, Maximum Flow Fraction during Reheat [], 0.30000
 Component Sizing Information, AirTerminal:SingleDuct:VAV:Reheat, AIR TERMINAL SINGLE DUCT VAV REHEAT 21, Maximum Reheat Water Flow Rate [m3/s], 8.81977E-005
 Component Sizing Information, AirTerminal:SingleDuct:VAV:Reheat, AIR TERMINAL SINGLE DUCT VAV REHEAT 21, Reheat Coil Sizing Air Volume Flow Rate [m3/s], 0.12440
 Component Sizing Information, Coil:Heating:Water, COIL HEATING WATER 22, Maximum Water Flow Rate [m3/s], 8.81977E-005
 Component Sizing Information, Coil:Heating:Water, COIL HEATING WATER 22, Design Coil Load [W], 4059.76531
 Component Sizing Information, Coil:Heating:Water, COIL HEATING WATER 22, U-Factor Times Area Value [W/K], 283.41870
Water Heating Coil Capacity Information,Coil:Heating:Water,COIL HEATING WATER 22,7269.97
 Component Sizing Information, AirTerminal:SingleDuct:VAV:Reheat, AIR TERMINAL SINGLE DUCT VAV REHEAT 37, Maximum Air Flow Rate [m3/s], 9.62437E-002
 Component Sizing Information, AirTerminal:SingleDuct:VAV:Reheat, AIR TERMINAL SINGLE DUCT VAV REHEAT 37, Maximum Flow per Zone Floor Area during Reheat [m3/s-m2], 8.45892E-004
 Component Sizing Information, AirTerminal:SingleDuct:VAV:Reheat, AIR TERMINAL SINGLE DUCT VAV REHEAT 37, Maximum Flow Fraction during Reheat [], 1.00000
 Component Sizing Information, AirTerminal:SingleDuct:VAV:Reheat, AIR TERMINAL SINGLE DUCT VAV REHEAT 37, Maximum Reheat Water Flow Rate [m3/s], 2.99304E-005
 Component Sizing Information, AirTerminal:SingleDuct:VAV:Reheat, AIR TERMINAL SINGLE DUCT VAV REHEAT 37, Reheat Coil Sizing Air Volume Flow Rate [m3/s], 4.22160E-002
 Component Sizing Information, Coil:Heating:Water, COIL HEATING WATER 38, Maximum Water Flow Rate [m3/s], 2.99304E-005
 Component Sizing Information, Coil:Heating:Water, COIL HEATING WATER 38, Design Coil Load [W], 1377.70723
 Component Sizing Information, Coil:Heating:Water, COIL HEATING WATER 38, U-Factor Times Area Value [W/K], 65.78102
Water Heating Coil Capacity Information,Coil:Heating:Water,COIL HEATING WATER 38,2113.04
 Component Sizing Information, AirTerminal:SingleDuct:VAV:Reheat, AIR TERMINAL SINGLE DUCT VAV REHEAT 18, Maximum Air Flow Rate [m3/s], 0.47420
 Component Sizing Information, AirTerminal:SingleDuct:VAV:Reheat, AIR TERMINAL SINGLE DUCT VAV REHEAT 18, Maximum Flow per Zone Floor Area during Reheat [m3/s-m2], 3.46976E-003
 Component Sizing Information, AirTerminal:SingleDuct:VAV:Reheat, AIR TERMINAL SINGLE DUCT VAV REHEAT 18, Maximum Flow Fraction during Reheat [], 0.30000
 Component Sizing Information, AirTerminal:SingleDuct:VAV:Reheat, AIR TERMINAL SINGLE DUCT VAV REHEAT 18, Maximum Reheat Water Flow Rate [m3/s], 1.00860E-004
 Component Sizing Information, AirTerminal:SingleDuct:VAV:Reheat, AIR TERMINAL SINGLE DUCT VAV REHEAT 18, Reheat Coil Sizing Air Volume Flow Rate [m3/s], 0.14226
 Component Sizing Information, Coil:Heating:Water, COIL HEATING WATER 19, Maximum Water Flow Rate [m3/s], 1.00860E-004
 Component Sizing Information, Coil:Heating:Water, COIL HEATING WATER 19, Design Coil Load [W], 4642.61859
 Component Sizing Information, Coil:Heating:Water, COIL HEATING WATER 19, U-Factor Times Area Value [W/K], 324.10862
Water Heating Coil Capacity Information,Coil:Heating:Water,COIL HEATING WATER 19,8313.71
 Component Sizing Information, AirTerminal:SingleDuct:VAV:Reheat, AIR TERMINAL SINGLE DUCT VAV REHEAT 29, Maximum Air Flow Rate [m3/s], 0.47351
 Component Sizing Information, AirTerminal:SingleDuct:VAV:Reheat, AIR TERMINAL SINGLE DUCT VAV REHEAT 29, Maximum Flow per Zone Floor Area during Reheat [m3/s-m2], 3.46470E-003
 Component Sizing Information, AirTerminal:SingleDuct:VAV:Reheat, AIR TERMINAL SINGLE DUCT VAV REHEAT 29, Maximum Flow Fraction during Reheat [], 0.30000
 Component Sizing Information, AirTerminal:SingleDuct:VAV:Reheat, AIR TERMINAL SINGLE DUCT VAV REHEAT 29, Maximum Reheat Water Flow Rate [m3/s], 1.00713E-004
 Component Sizing Information, AirTerminal:SingleDuct:VAV:Reheat, AIR TERMINAL SINGLE DUCT VAV REHEAT 29, Reheat Coil Sizing Air Volume Flow Rate [m3/s], 0.14205
 Component Sizing Information, Coil:Heating:Water, COIL HEATING WATER 30, Maximum Water Flow Rate [m3/s], 1.00713E-004
 Component Sizing Information, Coil:Heating:Water, COIL HEATING WATER 30, Design Coil Load [W], 4635.85018
 Component Sizing Information, Coil:Heating:Water, COIL HEATING WATER 30, U-Factor Times Area Value [W/K], 323.63611
Water Heating Coil Capacity Information,Coil:Heating:Water,COIL HEATING WATER 30,8301.59
 Component Sizing Information, AirTerminal:SingleDuct:VAV:Reheat, AIR TERMINAL SINGLE DUCT VAV REHEAT 34, Maximum Air Flow Rate [m3/s], 9.24985E-002
 Component Sizing Information, AirTerminal:SingleDuct:VAV:Reheat, AIR TERMINAL SINGLE DUCT VAV REHEAT 34, Maximum Flow per Zone Floor Area during Reheat [m3/s-m2], 8.12975E-004
 Component Sizing Information, AirTerminal:SingleDuct:VAV:Reheat, AIR TERMINAL SINGLE DUCT VAV REHEAT 34, Maximum Flow Fraction during Reheat [], 1.00000
 Component Sizing Information, AirTerminal:SingleDuct:VAV:Reheat, AIR TERMINAL SINGLE DUCT VAV REHEAT 34, Maximum Reheat Water Flow Rate [m3/s], 2.98359E-005
 Component Sizing Information, AirTerminal:SingleDuct:VAV:Reheat, AIR TERMINAL SINGLE DUCT VAV REHEAT 34, Reheat Coil Sizing Air Volume Flow Rate [m3/s], 4.20827E-002
 Component Sizing Information, Coil:Heating:Water, COIL HEATING WATER 35, Maximum Water Flow Rate [m3/s], 2.98359E-005
 Component Sizing Information, Coil:Heating:Water, COIL HEATING WATER 35, Design Coil Load [W], 1373.35429
 Component Sizing Information, Coil:Heating:Water, COIL HEATING WATER 35, U-Factor Times Area Value [W/K], 63.22124
Water Heating Coil Capacity Information,Coil:Heating:Water,COIL HEATING WATER 35,2070.35
 Component Sizing Information, AirTerminal:SingleDuct:VAV:Reheat, AIR TERMINAL SINGLE DUCT VAV REHEAT 12, Maximum Air Flow Rate [m3/s], 0.31633
 Component Sizing Information, AirTerminal:SingleDuct:VAV:Reheat, AIR TERMINAL SINGLE DUCT VAV REHEAT 12, Maximum Flow per Zone Floor Area during Reheat [m3/s-m2], 2.31458E-003
 Component Sizing Information, AirTerminal:SingleDuct:VAV:Reheat, AIR TERMINAL SINGLE DUCT VAV REHEAT 12, Maximum Flow Fraction during Reheat [], 0.30000
 Component Sizing Information, AirTerminal:SingleDuct:VAV:Reheat, AIR TERMINAL SINGLE DUCT VAV REHEAT 12, Maximum Reheat Water Flow Rate [m3/s], 8.21590E-005
 Component Sizing Information, AirTerminal:SingleDuct:VAV:Reheat, AIR TERMINAL SINGLE DUCT VAV REHEAT 12, Reheat Coil Sizing Air Volume Flow Rate [m3/s], 0.11588
 Component Sizing Information, Coil:Heating:Water, COIL HEATING WATER 13, Maximum Water Flow Rate [m3/s], 8.21590E-005
 Component Sizing Information, Coil:Heating:Water, COIL HEATING WATER 13, Design Coil Load [W], 3781.80375
 Component Sizing Information, Coil:Heating:Water, COIL HEATING WATER 13, U-Factor Times Area Value [W/K], 216.20335
Water Heating Coil Capacity Information,Coil:Heating:Water,COIL HEATING WATER 13,6277.21
 Component Sizing Information, AirTerminal:SingleDuct:VAV:Reheat, AIR TERMINAL SINGLE DUCT VAV REHEAT 4, Maximum Air Flow Rate [m3/s], 0.34018
 Component Sizing Information, AirTerminal:SingleDuct:VAV:Reheat, AIR TERMINAL SINGLE DUCT VAV REHEAT 4, Maximum Flow per Zone Floor Area during Reheat [m3/s-m2], 2.48913E-003
 Component Sizing Information, AirTerminal:SingleDuct:VAV:Reheat, AIR TERMINAL SINGLE DUCT VAV REHEAT 4, Maximum Flow Fraction during Reheat [], 0.30000
 Component Sizing Information, AirTerminal:SingleDuct:VAV:Reheat, AIR TERMINAL SINGLE DUCT VAV REHEAT 4, Maximum Reheat Water Flow Rate [m3/s], 9.13756E-005
 Component Sizing Information, AirTerminal:SingleDuct:VAV:Reheat, AIR TERMINAL SINGLE DUCT VAV REHEAT 4, Reheat Coil Sizing Air Volume Flow Rate [m3/s], 0.12888
 Component Sizing Information, Coil:Heating:Water, COIL HEATING WATER 5, Maximum Water Flow Rate [m3/s], 9.13756E-005
 Component Sizing Information, Coil:Heating:Water, COIL HEATING WATER 5, Design Coil Load [W], 4206.04736
 Component Sizing Information, Coil:Heating:Water, COIL HEATING WATER 5, U-Factor Times Area Value [W/K], 232.50863
Water Heating Coil Capacity Information,Coil:Heating:Water,COIL HEATING WATER 5,6884.43
 Component Sizing Information, AirTerminal:SingleDuct:VAV:Reheat, AIR TERMINAL SINGLE DUCT VAV REHEAT 2, Maximum Air Flow Rate [m3/s], 0.42270
 Component Sizing Information, AirTerminal:SingleDuct:VAV:Reheat, AIR TERMINAL SINGLE DUCT VAV REHEAT 2, Maximum Flow per Zone Floor Area during Reheat [m3/s-m2], 3.09290E-003
 Component Sizing Information, AirTerminal:SingleDuct:VAV:Reheat, AIR TERMINAL SINGLE DUCT VAV REHEAT 2, Maximum Flow Fraction during Reheat [], 0.30000
 Component Sizing Information, AirTerminal:SingleDuct:VAV:Reheat, AIR TERMINAL SINGLE DUCT VAV REHEAT 2, Maximum Reheat Water Flow Rate [m3/s], 9.08754E-005
 Component Sizing Information, AirTerminal:SingleDuct:VAV:Reheat, AIR TERMINAL SINGLE DUCT VAV REHEAT 2, Reheat Coil Sizing Air Volume Flow Rate [m3/s], 0.12818
 Component Sizing Information, Coil:Heating:Water, COIL HEATING WATER 3, Maximum Water Flow Rate [m3/s], 9.08754E-005
 Component Sizing Information, Coil:Heating:Water, COIL HEATING WATER 3, Design Coil Load [W], 4183.02187
 Component Sizing Information, Coil:Heating:Water, COIL HEATING WATER 3, U-Factor Times Area Value [W/K], 288.90595
Water Heating Coil Capacity Information,Coil:Heating:Water,COIL HEATING WATER 3,7462.54
 Component Sizing Information, AirTerminal:SingleDuct:VAV:Reheat, AIR TERMINAL SINGLE DUCT VAV REHEAT 42, Maximum Air Flow Rate [m3/s], 0.31816
 Component Sizing Information, AirTerminal:SingleDuct:VAV:Reheat, AIR TERMINAL SINGLE DUCT VAV REHEAT 42, Maximum Flow per Zone Floor Area during Reheat [m3/s-m2], 2.32798E-003
 Component Sizing Information, AirTerminal:SingleDuct:VAV:Reheat, AIR TERMINAL SINGLE DUCT VAV REHEAT 42, Maximum Flow Fraction during Reheat [], 0.30000
 Component Sizing Information, AirTerminal:SingleDuct:VAV:Reheat, AIR TERMINAL SINGLE DUCT VAV REHEAT 42, Maximum Reheat Water Flow Rate [m3/s], 8.35973E-005
 Component Sizing Information, AirTerminal:SingleDuct:VAV:Reheat, AIR TERMINAL SINGLE DUCT VAV REHEAT 42, Reheat Coil Sizing Air Volume Flow Rate [m3/s], 0.11791
 Component Sizing Information, Coil:Heating:Water, COIL HEATING WATER 43, Maximum Water Flow Rate [m3/s], 8.35973E-005
 Component Sizing Information, Coil:Heating:Water, COIL HEATING WATER 43, Design Coil Load [W], 3848.00728
 Component Sizing Information, Coil:Heating:Water, COIL HEATING WATER 43, U-Factor Times Area Value [W/K], 217.45577
Water Heating Coil Capacity Information,Coil:Heating:Water,COIL HEATING WATER 43,6356.66
 Component Sizing Information, AirTerminal:SingleDuct:VAV:Reheat, AIR TERMINAL SINGLE DUCT VAV REHEAT 39, Maximum Air Flow Rate [m3/s], 0.42290
 Component Sizing Information, AirTerminal:SingleDuct:VAV:Reheat, AIR TERMINAL SINGLE DUCT VAV REHEAT 39, Maximum Flow per Zone Floor Area during Reheat [m3/s-m2], 3.09438E-003
 Component Sizing Information, AirTerminal:SingleDuct:VAV:Reheat, AIR TERMINAL SINGLE DUCT VAV REHEAT 39, Maximum Flow Fraction during Reheat [], 0.30000
 Component Sizing Information, AirTerminal:SingleDuct:VAV:Reheat, AIR TERMINAL SINGLE DUCT VAV REHEAT 39, Maximum Reheat Water Flow Rate [m3/s], 8.99483E-005
 Component Sizing Information, AirTerminal:SingleDuct:VAV:Reheat, AIR TERMINAL SINGLE DUCT VAV REHEAT 39, Reheat Coil Sizing Air Volume Flow Rate [m3/s], 0.12687
 Component Sizing Information, Coil:Heating:Water, COIL HEATING WATER 40, Maximum Water Flow Rate [m3/s], 8.99483E-005
 Component Sizing Information, Coil:Heating:Water, COIL HEATING WATER 40, Design Coil Load [W], 4140.34827
 Component Sizing Information, Coil:Heating:Water, COIL HEATING WATER 40, U-Factor Times Area Value [W/K], 289.04433
Water Heating Coil Capacity Information,Coil:Heating:Water,COIL HEATING WATER 40,7414.27
 Component Sizing Information, AirTerminal:SingleDuct:VAV:Reheat, AIR TERMINAL SINGLE DUCT VAV REHEAT 25, Maximum Air Flow Rate [m3/s], 0.19393
 Component Sizing Information, AirTerminal:SingleDuct:VAV:Reheat, AIR TERMINAL SINGLE DUCT VAV REHEAT 25, Maximum Flow per Zone Floor Area during Reheat [m3/s-m2], 2.03200E-003
 Component Sizing Information, AirTerminal:SingleDuct:VAV:Reheat, AIR TERMINAL SINGLE DUCT VAV REHEAT 25, Maximum Flow Fraction during Reheat [], 0.42960
 Component Sizing Information, AirTerminal:SingleDuct:VAV:Reheat, AIR TERMINAL SINGLE DUCT VAV REHEAT 25, Maximum Reheat Water Flow Rate [m3/s], 8.35973E-005
 Component Sizing Information, AirTerminal:SingleDuct:VAV:Reheat, AIR TERMINAL SINGLE DUCT VAV REHEAT 25, Reheat Coil Sizing Air Volume Flow Rate [m3/s], 0.11791
 Component Sizing Information, Coil:Heating:Water, COIL HEATING WATER 26, Maximum Water Flow Rate [m3/s], 8.35973E-005
 Component Sizing Information, Coil:Heating:Water, COIL HEATING WATER 26, Design Coil Load [W], 3848.00728
 Component Sizing Information, Coil:Heating:Water, COIL HEATING WATER 26, U-Factor Times Area Value [W/K], 132.54757
Water Heating Coil Capacity Information,Coil:Heating:Water,COIL HEATING WATER 26,4987.35
 Component Sizing Information, AirTerminal:SingleDuct:VAV:Reheat, AIR TERMINAL SINGLE DUCT VAV REHEAT 46, Maximum Air Flow Rate [m3/s], 0.47842
 Component Sizing Information, AirTerminal:SingleDuct:VAV:Reheat, AIR TERMINAL SINGLE DUCT VAV REHEAT 46, Maximum Flow per Zone Floor Area during Reheat [m3/s-m2], 3.50066E-003
 Component Sizing Information, AirTerminal:SingleDuct:VAV:Reheat, AIR TERMINAL SINGLE DUCT VAV REHEAT 46, Maximum Flow Fraction during Reheat [], 0.30000
 Component Sizing Information, AirTerminal:SingleDuct:VAV:Reheat, AIR TERMINAL SINGLE DUCT VAV REHEAT 46, Maximum Reheat Water Flow Rate [m3/s], 1.01758E-004
 Component Sizing Information, AirTerminal:SingleDuct:VAV:Reheat, AIR TERMINAL SINGLE DUCT VAV REHEAT 46, Reheat Coil Sizing Air Volume Flow Rate [m3/s], 0.14353
 Component Sizing Information, Coil:Heating:Water, COIL HEATING WATER 47, Maximum Water Flow Rate [m3/s], 1.01758E-004
 Component Sizing Information, Coil:Heating:Water, COIL HEATING WATER 47, Design Coil Load [W], 4683.95443
 Component Sizing Information, Coil:Heating:Water, COIL HEATING WATER 47, U-Factor Times Area Value [W/K], 326.99434
Water Heating Coil Capacity Information,Coil:Heating:Water,COIL HEATING WATER 47,8387.73
 Component Sizing Information, AirTerminal:SingleDuct:VAV:Reheat, AIR TERMINAL SINGLE DUCT VAV REHEAT 31, Maximum Air Flow Rate [m3/s], 0.39495
 Component Sizing Information, AirTerminal:SingleDuct:VAV:Reheat, AIR TERMINAL SINGLE DUCT VAV REHEAT 31, Maximum Flow per Zone Floor Area during Reheat [m3/s-m2], 2.88988E-003
 Component Sizing Information, AirTerminal:SingleDuct:VAV:Reheat, AIR TERMINAL SINGLE DUCT VAV REHEAT 31, Maximum Flow Fraction during Reheat [], 0.30000
 Component Sizing Information, AirTerminal:SingleDuct:VAV:Reheat, AIR TERMINAL SINGLE DUCT VAV REHEAT 31, Maximum Reheat Water Flow Rate [m3/s], 9.16077E-005
 Component Sizing Information, AirTerminal:SingleDuct:VAV:Reheat, AIR TERMINAL SINGLE DUCT VAV REHEAT 31, Reheat Coil Sizing Air Volume Flow Rate [m3/s], 0.12921
 Component Sizing Information, Coil:Heating:Water, COIL HEATING WATER 32, Maximum Water Flow Rate [m3/s], 9.16077E-005
 Component Sizing Information, Coil:Heating:Water, COIL HEATING WATER 32, Design Coil Load [W], 4216.72947
 Component Sizing Information, Coil:Heating:Water, COIL HEATING WATER 32, U-Factor Times Area Value [W/K], 269.94207
Water Heating Coil Capacity Information,Coil:Heating:Water,COIL HEATING WATER 32,7317.58
 Component Sizing Information, AirTerminal:SingleDuct:VAV:Reheat, AIR TERMINAL SINGLE DUCT VAV REHEAT 10, Maximum Air Flow Rate [m3/s], 0.46742
 Component Sizing Information, AirTerminal:SingleDuct:VAV:Reheat, AIR TERMINAL SINGLE DUCT VAV REHEAT 10, Maximum Flow per Zone Floor Area during Reheat [m3/s-m2], 3.42012E-003
 Component Sizing Information, AirTerminal:SingleDuct:VAV:Reheat, AIR TERMINAL SINGLE DUCT VAV REHEAT 10, Maximum Flow Fraction during Reheat [], 0.30000
 Component Sizing Information, AirTerminal:SingleDuct:VAV:Reheat, AIR TERMINAL SINGLE DUCT VAV REHEAT 10, Maximum Reheat Water Flow Rate [m3/s], 9.94171E-005
 Component Sizing Information, AirTerminal:SingleDuct:VAV:Reheat, AIR TERMINAL SINGLE DUCT VAV REHEAT 10, Reheat Coil Sizing Air Volume Flow Rate [m3/s], 0.14023
 Component Sizing Information, Coil:Heating:Water, COIL HEATING WATER 11, Maximum Water Flow Rate [m3/s], 9.94171E-005
 Component Sizing Information, Coil:Heating:Water, COIL HEATING WATER 11, Design Coil Load [W], 4576.20002
 Component Sizing Information, Coil:Heating:Water, COIL HEATING WATER 11, U-Factor Times Area Value [W/K], 319.47184
Water Heating Coil Capacity Information,Coil:Heating:Water,COIL HEATING WATER 11,8194.77
 Component Sizing Information, AirTerminal:SingleDuct:VAV:Reheat, AIR TERMINAL SINGLE DUCT VAV REHEAT 19, Maximum Air Flow Rate [m3/s], 9.59830E-002
 Component Sizing Information, AirTerminal:SingleDuct:VAV:Reheat, AIR TERMINAL SINGLE DUCT VAV REHEAT 19, Maximum Flow per Zone Floor Area during Reheat [m3/s-m2], 8.43601E-004
 Component Sizing Information, AirTerminal:SingleDuct:VAV:Reheat, AIR TERMINAL SINGLE DUCT VAV REHEAT 19, Maximum Flow Fraction during Reheat [], 1.00000
 Component Sizing Information, AirTerminal:SingleDuct:VAV:Reheat, AIR TERMINAL SINGLE DUCT VAV REHEAT 19, Maximum Reheat Water Flow Rate [m3/s], 2.96249E-005
 Component Sizing Information, AirTerminal:SingleDuct:VAV:Reheat, AIR TERMINAL SINGLE DUCT VAV REHEAT 19, Reheat Coil Sizing Air Volume Flow Rate [m3/s], 4.17850E-002
 Component Sizing Information, Coil:Heating:Water, COIL HEATING WATER 20, Maximum Water Flow Rate [m3/s], 2.96249E-005
 Component Sizing Information, Coil:Heating:Water, COIL HEATING WATER 20, Design Coil Load [W], 1363.64115
 Component Sizing Information, Coil:Heating:Water, COIL HEATING WATER 20, U-Factor Times Area Value [W/K], 65.60282
Water Heating Coil Capacity Information,Coil:Heating:Water,COIL HEATING WATER 20,2098.82
 Component Sizing Information, AirTerminal:SingleDuct:VAV:Reheat, AIR TERMINAL SINGLE DUCT VAV REHEAT 14, Maximum Air Flow Rate [m3/s], 0.19342
 Component Sizing Information, AirTerminal:SingleDuct:VAV:Reheat, AIR TERMINAL SINGLE DUCT VAV REHEAT 14, Maximum Flow per Zone Floor Area during Reheat [m3/s-m2], 2.03200E-003
 Component Sizing Information, AirTerminal:SingleDuct:VAV:Reheat, AIR TERMINAL SINGLE DUCT VAV REHEAT 14, Maximum Flow Fraction during Reheat [], 0.43073
 Component Sizing Information, AirTerminal:SingleDuct:VAV:Reheat, AIR TERMINAL SINGLE DUCT VAV REHEAT 14, Maximum Reheat Water Flow Rate [m3/s], 8.28045E-005
 Component Sizing Information, AirTerminal:SingleDuct:VAV:Reheat, AIR TERMINAL SINGLE DUCT VAV REHEAT 14, Reheat Coil Sizing Air Volume Flow Rate [m3/s], 0.11679
 Component Sizing Information, Coil:Heating:Water, COIL HEATING WATER 15, Maximum Water Flow Rate [m3/s], 8.28045E-005
 Component Sizing Information, Coil:Heating:Water, COIL HEATING WATER 15, Design Coil Load [W], 3811.51698
 Component Sizing Information, Coil:Heating:Water, COIL HEATING WATER 15, U-Factor Times Area Value [W/K], 132.19896
Water Heating Coil Capacity Information,Coil:Heating:Water,COIL HEATING WATER 15,4959.25
 Component Sizing Information, AirTerminal:SingleDuct:VAV:Reheat, AIR TERMINAL SINGLE DUCT VAV REHEAT 9, Maximum Air Flow Rate [m3/s], 0.11515
 Component Sizing Information, AirTerminal:SingleDuct:VAV:Reheat, AIR TERMINAL SINGLE DUCT VAV REHEAT 9, Maximum Flow per Zone Floor Area during Reheat [m3/s-m2], 1.01210E-003
 Component Sizing Information, AirTerminal:SingleDuct:VAV:Reheat, AIR TERMINAL SINGLE DUCT VAV REHEAT 9, Maximum Flow Fraction during Reheat [], 1.00000
 Component Sizing Information, AirTerminal:SingleDuct:VAV:Reheat, AIR TERMINAL SINGLE DUCT VAV REHEAT 9, Maximum Reheat Water Flow Rate [m3/s], 5.08603E-005
 Component Sizing Information, AirTerminal:SingleDuct:VAV:Reheat, AIR TERMINAL SINGLE DUCT VAV REHEAT 9, Reheat Coil Sizing Air Volume Flow Rate [m3/s], 7.17370E-002
 Component Sizing Information, Coil:Heating:Water, COIL HEATING WATER 10, Maximum Water Flow Rate [m3/s], 5.08603E-005
 Component Sizing Information, Coil:Heating:Water, COIL HEATING WATER 10, Design Coil Load [W], 2341.11487
 Component Sizing Information, Coil:Heating:Water, COIL HEATING WATER 10, U-Factor Times Area Value [W/K], 78.70644
Water Heating Coil Capacity Information,Coil:Heating:Water,COIL HEATING WATER 10,2992.80
 Component Sizing Information, AirTerminal:SingleDuct:VAV:Reheat, AIR TERMINAL SINGLE DUCT VAV REHEAT 38, Maximum Air Flow Rate [m3/s], 0.12889
 Component Sizing Information, AirTerminal:SingleDuct:VAV:Reheat, AIR TERMINAL SINGLE DUCT VAV REHEAT 38, Maximum Flow per Zone Floor Area during Reheat [m3/s-m2], 2.03200E-003
 Component Sizing Information, AirTerminal:SingleDuct:VAV:Reheat, AIR TERMINAL SINGLE DUCT VAV REHEAT 38, Maximum Flow Fraction during Reheat [], 0.64638
 Component Sizing Information, AirTerminal:SingleDuct:VAV:Reheat, AIR TERMINAL SINGLE DUCT VAV REHEAT 38, Maximum Reheat Water Flow Rate [m3/s], 9.13810E-005
 Component Sizing Information, AirTerminal:SingleDuct:VAV:Reheat, AIR TERMINAL SINGLE DUCT VAV REHEAT 38, Reheat Coil Sizing Air Volume Flow Rate [m3/s], 0.12889
 Component Sizing Information, Coil:Heating:Water, COIL HEATING WATER 39, Maximum Water Flow Rate [m3/s], 9.13810E-005
 Component Sizing Information, Coil:Heating:Water, COIL HEATING WATER 39, Design Coil Load [W], 4206.29557
 Component Sizing Information, Coil:Heating:Water, COIL HEATING WATER 39, U-Factor Times Area Value [W/K], 88.09446
Water Heating Coil Capacity Information,Coil:Heating:Water,COIL HEATING WATER 39,3984.86
 Component Sizing Information, AirTerminal:SingleDuct:VAV:Reheat, AIR TERMINAL SINGLE DUCT VAV REHEAT 27, Maximum Air Flow Rate [m3/s], 0.19292
 Component Sizing Information, AirTerminal:SingleDuct:VAV:Reheat, AIR TERMINAL SINGLE DUCT VAV REHEAT 27, Maximum Flow per Zone Floor Area during Reheat [m3/s-m2], 2.03200E-003
 Component Sizing Information, AirTerminal:SingleDuct:VAV:Reheat, AIR TERMINAL SINGLE DUCT VAV REHEAT 27, Maximum Flow Fraction during Reheat [], 0.43185
 Component Sizing Information, AirTerminal:SingleDuct:VAV:Reheat, AIR TERMINAL SINGLE DUCT VAV REHEAT 27, Maximum Reheat Water Flow Rate [m3/s], 8.23801E-005
 Component Sizing Information, AirTerminal:SingleDuct:VAV:Reheat, AIR TERMINAL SINGLE DUCT VAV REHEAT 27, Reheat Coil Sizing Air Volume Flow Rate [m3/s], 0.11619
 Component Sizing Information, Coil:Heating:Water, COIL HEATING WATER 28, Maximum Water Flow Rate [m3/s], 8.23801E-005
 Component Sizing Information, Coil:Heating:Water, COIL HEATING WATER 28, Design Coil Load [W], 3791.97891
 Component Sizing Information, Coil:Heating:Water, COIL HEATING WATER 28, U-Factor Times Area Value [W/K], 131.85630
Water Heating Coil Capacity Information,Coil:Heating:Water,COIL HEATING WATER 28,4940.88
 Component Sizing Information, AirTerminal:SingleDuct:VAV:Reheat, AIR TERMINAL SINGLE DUCT VAV REHEAT 3, Maximum Air Flow Rate [m3/s], 0.30881
 Component Sizing Information, AirTerminal:SingleDuct:VAV:Reheat, AIR TERMINAL SINGLE DUCT VAV REHEAT 3, Maximum Flow per Zone Floor Area during Reheat [m3/s-m2], 2.25959E-003
 Component Sizing Information, AirTerminal:SingleDuct:VAV:Reheat, AIR TERMINAL SINGLE DUCT VAV REHEAT 3, Maximum Flow Fraction during Reheat [], 0.30000
 Component Sizing Information, AirTerminal:SingleDuct:VAV:Reheat, AIR TERMINAL SINGLE DUCT VAV REHEAT 3, Maximum Reheat Water Flow Rate [m3/s], 8.24113E-005
 Component Sizing Information, AirTerminal:SingleDuct:VAV:Reheat, AIR TERMINAL SINGLE DUCT VAV REHEAT 3, Reheat Coil Sizing Air Volume Flow Rate [m3/s], 0.11624
 Component Sizing Information, Coil:Heating:Water, COIL HEATING WATER 4, Maximum Water Flow Rate [m3/s], 8.24113E-005
 Component Sizing Information, Coil:Heating:Water, COIL HEATING WATER 4, Design Coil Load [W], 3793.41764
 Component Sizing Information, Coil:Heating:Water, COIL HEATING WATER 4, U-Factor Times Area Value [W/K], 211.06738
Water Heating Coil Capacity Information,Coil:Heating:Water,COIL HEATING WATER 4,6226.04
 Component Sizing Information, AirTerminal:SingleDuct:VAV:Reheat, AIR TERMINAL SINGLE DUCT VAV REHEAT 7, Maximum Air Flow Rate [m3/s], 0.47431
 Component Sizing Information, AirTerminal:SingleDuct:VAV:Reheat, AIR TERMINAL SINGLE DUCT VAV REHEAT 7, Maximum Flow per Zone Floor Area during Reheat [m3/s-m2], 3.47059E-003
 Component Sizing Information, AirTerminal:SingleDuct:VAV:Reheat, AIR TERMINAL SINGLE DUCT VAV REHEAT 7, Maximum Flow Fraction during Reheat [], 0.30000
 Component Sizing Information, AirTerminal:SingleDuct:VAV:Reheat, AIR TERMINAL SINGLE DUCT VAV REHEAT 7, Maximum Reheat Water Flow Rate [m3/s], 1.00884E-004
 Component Sizing Information, AirTerminal:SingleDuct:VAV:Reheat, AIR TERMINAL SINGLE DUCT VAV REHEAT 7, Reheat Coil Sizing Air Volume Flow Rate [m3/s], 0.14229
[...]
 Warmup Convergence Information,THERMAL ZONE 30,SizingPeriod: PHOENIX SKY HARBOR INTL AP ANN CLG 2% CONDNS DB=>MWB,8.3821377930E-002,0.1665404026,Pass,Pass,3.8473572945E-002,3.6781596156E-002,Pass,Pass
 Warmup Convergence Information,THERMAL ZONE 3,SizingPeriod: PHOENIX SKY HARBOR INTL AP ANN CLG 2% CONDNS DB=>MWB,7.2257497277E-002,8.7681151731E-002,Pass,Pass,2.4573860704E-002,2.9209601224E-002,Pass,Pass
 Warmup Convergence Information,THERMAL ZONE 25,SizingPeriod: PHOENIX SKY HARBOR INTL AP ANN CLG 2% CONDNS DB=>MWB,8.3481647369E-002,0.1177538779,Pass,Pass,3.2448180979E-002,2.6702811231E-002,Pass,Pass
 Warmup Convergence Information,THERMAL ZONE 5,SizingPeriod: PHOENIX SKY HARBOR INTL AP ANN CLG 2% CONDNS DB=>MWB,8.3463458972E-002,0.1154811088,Pass,Pass,3.0992075638E-002,2.5542140640E-002,Pass,Pass
 Warmup Convergence Information,THERMAL ZONE 28,SizingPeriod: PHOENIX SKY HARBOR INTL AP ANN CLG 2% CONDNS DB=>MWB,3.1529620520E-002,3.1384060601E-002,Pass,Pass,1.7248933734E-002,2.3051489206E-002,Pass,Pass
 Warmup Convergence Information,THERMAL ZONE 1,SizingPeriod: PHOENIX SKY HARBOR INTL AP ANN CLG 2% CONDNS DB=>MWB,8.3966937031E-002,0.1645953095,Pass,Pass,0.2078180099,0.5307080237,Pass,Pass
 Warmup Convergence Information,THERMAL ZONE 11,SizingPeriod: PHOENIX SKY HARBOR INTL AP ANN CLG 2% CONDNS DB=>MWB,8.3758376363E-002,0.1663870003,Pass,Pass,3.8203405670E-002,3.6226159306E-002,Pass,Pass
 Warmup Convergence Information,THERMAL ZONE 12,SizingPeriod: PHOENIX SKY HARBOR INTL AP ANN CLG 2% CONDNS DB=>MWB,2.0760239852E-002,3.6766564170E-002,Pass,Pass,0.2483700888,0.9000167614,Pass,Pass
 Warmup Convergence Information,THERMAL ZONE 6,SizingPeriod: PHOENIX SKY HARBOR INTL AP ANN CLG 2% CONDNS DB=>MWB,8.3739993987E-002,0.1216384315,Pass,Pass,3.9340839975E-002,3.5265878316E-002,Pass,Pass
 Warmup Convergence Information,THERMAL ZONE 10,SizingPeriod: PHOENIX SKY HARBOR INTL AP ANN CLG 2% CONDNS DB=>MWB,8.3526304443E-002,0.1178427040,Pass,Pass,3.2523433721E-002,2.6735824622E-002,Pass,Pass
 Warmup Convergence Information,THERMAL ZONE 19,SizingPeriod: PHOENIX SKY HARBOR INTL AP ANN CLG 2% CONDNS DB=>MWB,7.9561203176E-002,9.1287148463E-002,Pass,Pass,2.5097026779E-002,2.9861775864E-002,Pass,Pass
 Warmup Convergence Information,THERMAL ZONE 39,SizingPeriod: PHOENIX SKY HARBOR INTL AP ANN CLG 2% CONDNS DB=>MWB,8.3533375048E-002,0.1176598887,Pass,Pass,3.2373613876E-002,2.6717980518E-002,Pass,Pass
 Warmup Convergence Information,THERMAL ZONE 43,SizingPeriod: PHOENIX SKY HARBOR INTL AP ANN CLG 2% CONDNS DB=>MWB,8.3633199852E-002,0.1664707671,Pass,Pass,3.8386807488E-002,3.6441599077E-002,Pass,Pass
 Warmup Convergence Information,THERMAL ZONE 42,SizingPeriod: PHOENIX SKY HARBOR INTL AP ANN CLG 2% CONDNS DB=>MWB,4.8883447907E-002,3.4175266965E-002,Pass,Pass,1.4081278118E-002,2.8265524722E-002,Pass,Pass
 Warmup Convergence Information,THERMAL ZONE 9,SizingPeriod: PHOENIX SKY HARBOR INTL AP ANN CLG 2% CONDNS DB=>MWB,3.2957135608E-002,3.1298338519E-002,Pass,Pass,1.7049250303E-002,2.3499853260E-002,Pass,Pass
 Warmup Convergence Information,THERMAL ZONE 14,SizingPeriod: PHOENIX SKY HARBOR INTL AP ANN CLG 2% CONDNS DB=>MWB,8.3699862337E-002,0.1206850100,Pass,Pass,3.9144054550E-002,3.5210313053E-002,Pass,Pass
 Warmup Convergence Information,THERMAL ZONE 20,SizingPeriod: PHOENIX SKY HARBOR INTL AP ANN CLG 2% CONDNS DB=>MWB,7.1075663057E-002,8.7366922606E-002,Pass,Pass,2.4513151631E-002,2.9199967822E-002,Pass,Pass
 Warmup Convergence Information,THERMAL ZONE 2,SizingPeriod: PHOENIX SKY HARBOR INTL AP ANN CLG 2% CONDNS DB=>MWB,3.3489768784E-002,3.1137750579E-002,Pass,Pass,1.6480800364E-002,2.1091803641E-002,Pass,Pass
Environment,PHOENIX SKY HARBOR INTL AP ANN CLG 2% CONDNS DP=>MDB,SizingPeriod:DesignDay,07/21,07/21,SummerDesignDay,1,N/A,N/A,N/A,N/A,N/A,N/A
Environment:Daylight Saving,No,SizingPeriod:DesignDay
Environment:Design Day Data,30.20,12.00,DefaultMultipliers,97342,260,4.1,0.00,No ,No 
Environment:Design_Day_Misc,202,1084.4,0.2082,0.1365,1.0,-6.23,20.6,ASHRAETau
Environment:WarmupDays,  6
 Warmup Convergence Information,THERMAL ZONE 7,SizingPeriod: PHOENIX SKY HARBOR INTL AP ANN CLG 2% CONDNS DP=>MDB,8.4299064437E-002,0.1653842560,Pass,Pass,0.3042574116,1.8056609288,Pass,Pass
 Warmup Convergence Information,THERMAL ZONE 32,SizingPeriod: PHOENIX SKY HARBOR INTL AP ANN CLG 2% CONDNS DP=>MDB,8.4482494602E-002,0.1765020293,Pass,Pass,0.1036743899,9.5399112402E-002,Pass,Pass
 Warmup Convergence Information,THERMAL ZONE 37,SizingPeriod: PHOENIX SKY HARBOR INTL AP ANN CLG 2% CONDNS DP=>MDB,8.3728222677E-002,9.1131691242E-002,Pass,Pass,0.3324092228,1.9845958662,Pass,Pass
 Warmup Convergence Information,THERMAL ZONE 35,SizingPeriod: PHOENIX SKY HARBOR INTL AP ANN CLG 2% CONDNS DP=>MDB,8.4004846398E-002,0.1389229358,Pass,Pass,0.3494449505,1.5421301605,Pass,Pass
 Warmup Convergence Information,THERMAL ZONE 29,SizingPeriod: PHOENIX SKY HARBOR INTL AP ANN CLG 2% CONDNS DP=>MDB,8.4254136127E-002,0.1651402968,Pass,Pass,0.1801288442,0.6232243934,Pass,Pass
 Warmup Convergence Information,THERMAL ZONE 17,SizingPeriod: PHOENIX SKY HARBOR INTL AP ANN CLG 2% CONDNS DP=>MDB,8.4233174527E-002,0.1630352641,Pass,Pass,0.1971029689,0.6568106593,Pass,Pass
 Warmup Convergence Information,THERMAL ZONE 36,SizingPeriod: PHOENIX SKY HARBOR INTL AP ANN CLG 2% CONDNS DP=>MDB,5.6439579969E-002,2.3403994946E-002,Pass,Pass,4.2503937144E-003,1.6017184064E-003,Pass,Pass
 Warmup Convergence Information,THERMAL ZONE 31,SizingPeriod: PHOENIX SKY HARBOR INTL AP ANN CLG 2% CONDNS DP=>MDB,8.4222897744E-002,0.1767445209,Pass,Pass,0.1011798837,9.3997360165E-002,Pass,Pass
 Warmup Convergence Information,THERMAL ZONE 27,SizingPeriod: PHOENIX SKY HARBOR INTL AP ANN CLG 2% CONDNS DP=>MDB,8.4282128689E-002,0.1768072952,Pass,Pass,0.1063094671,0.1083301120,Pass,Pass
 Warmup Convergence Information,THERMAL ZONE 22,SizingPeriod: PHOENIX SKY HARBOR INTL AP ANN CLG 2% CONDNS DP=>MDB,5.7220878875E-002,2.3817870468E-002,Pass,Pass,4.3429279109E-003,1.6404827838E-003,Pass,Pass
 Warmup Convergence Information,THERMAL ZONE 18,SizingPeriod: PHOENIX SKY HARBOR INTL AP ANN CLG 2% CONDNS DP=>MDB,8.4107081451E-002,0.1389918939,Pass,Pass,0.2099831717,0.5472780074,Pass,Pass
 Warmup Convergence Information,THERMAL ZONE 41,SizingPeriod: PHOENIX SKY HARBOR INTL AP ANN CLG 2% CONDNS DP=>MDB,8.4422836316E-002,0.1890379207,Pass,Pass,0.2955588332,1.3180901297,Pass,Pass
 Warmup Convergence Information,THERMAL ZONE 15,SizingPeriod: PHOENIX SKY HARBOR INTL AP ANN CLG 2% CONDNS DP=>MDB,8.4257782561E-002,0.1589666687,Pass,Pass,0.1352592202,0.2554672931,Pass,Pass
 Warmup Convergence Information,THERMAL ZONE 45,SizingPeriod: PHOENIX SKY HARBOR INTL AP ANN CLG 2% CONDNS DP=>MDB,8.4003160120E-002,0.1388235079,Pass,Pass,0.5134470964,2.6057257931,Pass,Pass
 Warmup Convergence Information,THERMAL ZONE 33,SizingPeriod: PHOENIX SKY HARBOR INTL AP ANN CLG 2% CONDNS DP=>MDB,8.4175252657E-002,0.1652305308,Pass,Pass,0.1504206817,0.3498061108,Pass,Pass
 Warmup Convergence Information,THERMAL ZONE 24,SizingPeriod: PHOENIX SKY HARBOR INTL AP ANN CLG 2% CONDNS DP=>MDB,8.3622989121E-002,9.1654975801E-002,Pass,Pass,0.2098884529,0.9356711812,Pass,Pass
 Warmup Convergence Information,THERMAL ZONE 44,SizingPeriod: PHOENIX SKY HARBOR INTL AP ANN CLG 2% CONDNS DP=>MDB,8.4287859033E-002,0.1768817140,Pass,Pass,0.2523556289,1.0496075900,Pass,Pass
 Warmup Convergence Information,THERMAL ZONE 38,SizingPeriod: PHOENIX SKY HARBOR INTL AP ANN CLG 2% CONDNS DP=>MDB,8.4678281507E-002,0.2418811241,Pass,Pass,0.2505609367,0.5653414147,Pass,Pass
 Warmup Convergence Information,THERMAL ZONE 23,SizingPeriod: PHOENIX SKY HARBOR INTL AP ANN CLG 2% CONDNS DP=>MDB,8.4278161972E-002,0.1779608280,Pass,Pass,0.2675380733,0.9698495749,Pass,Pass
 Warmup Convergence Information,THERMAL ZONE 8,SizingPeriod: PHOENIX SKY HARBOR INTL AP ANN CLG 2% CONDNS DP=>MDB,5.6485123584E-002,2.3390913811E-002,Pass,Pass,4.2503865766E-003,1.5999059566E-003,Pass,Pass
 Warmup Convergence Information,THERMAL ZONE 21,SizingPeriod: PHOENIX SKY HARBOR INTL AP ANN CLG 2% CONDNS DP=>MDB,8.3778135934E-002,9.1577083396E-002,Pass,Pass,0.3781194795,2.5819634074,Pass,Pass
 Warmup Convergence Information,THERMAL ZONE 34,SizingPeriod: PHOENIX SKY HARBOR INTL AP ANN CLG 2% CONDNS DP=>MDB,5.8354241838E-002,2.2460842422E-002,Pass,Pass,4.4573222997E-003,1.5438425922E-003,Pass,Pass
 Warmup Convergence Information,THERMAL ZONE 26,SizingPeriod: PHOENIX SKY HARBOR INTL AP ANN CLG 2% CONDNS DP=>MDB,6.7484959237E-002,0.1169265916,Pass,Pass,0.2117315951,0.6544257891,Pass,Pass
 Warmup Convergence Information,THERMAL ZONE 40,SizingPeriod: PHOENIX SKY HARBOR INTL AP ANN CLG 2% CONDNS DP=>MDB,8.3725061770E-002,9.1584539953E-002,Pass,Pass,1.1186150850,9.7858897214,Pass,Pass
 Warmup Convergence Information,THERMAL ZONE 16,SizingPeriod: PHOENIX SKY HARBOR INTL AP ANN CLG 2% CONDNS DP=>MDB,8.4039729976E-002,0.1403529906,Pass,Pass,0.1908665997,0.5005161190,Pass,Pass
 Warmup Convergence Information,THERMAL ZONE 4,SizingPeriod: PHOENIX SKY HARBOR INTL AP ANN CLG 2% CONDNS DP=>MDB,8.4570727732E-002,0.1764128405,Pass,Pass,0.1052217570,0.1040226812,Pass,Pass
 Warmup Convergence Information,THERMAL ZONE 13,SizingPeriod: PHOENIX SKY HARBOR INTL AP ANN CLG 2% CONDNS DP=>MDB,8.3721885138E-002,9.1646535199E-002,Pass,Pass,0.3208530999,1.9858622459,Pass,Pass
 Warmup Convergence Information,THERMAL ZONE 30,SizingPeriod: PHOENIX SKY HARBOR INTL AP ANN CLG 2% CONDNS DP=>MDB,8.4275542552E-002,0.1654691472,Pass,Pass,0.3177923482,1.9356653820,Pass,Pass
 Warmup Convergence Information,THERMAL ZONE 3,SizingPeriod: PHOENIX SKY HARBOR INTL AP ANN CLG 2% CONDNS DP=>MDB,8.3717525037E-002,9.1596365097E-002,Pass,Pass,0.1496862354,0.3821617235,Pass,Pass
 Warmup Convergence Information,THERMAL ZONE 25,SizingPeriod: PHOENIX SKY HARBOR INTL AP ANN CLG 2% CONDNS DP=>MDB,8.3985922226E-002,0.1390811579,Pass,Pass,0.2984084179,1.1932698081,Pass,Pass
 Warmup Convergence Information,THERMAL ZONE 5,SizingPeriod: PHOENIX SKY HARBOR INTL AP ANN CLG 2% CONDNS DP=>MDB,8.4106861148E-002,0.1366506814,Pass,Pass,0.1654791999,0.3323581039,Pass,Pass
 Warmup Convergence Information,THERMAL ZONE 28,SizingPeriod: PHOENIX SKY HARBOR INTL AP ANN CLG 2% CONDNS DP=>MDB,5.5721221057E-002,2.2993825311E-002,Pass,Pass,4.2060617884E-003,1.5777587152E-003,Pass,Pass
 Warmup Convergence Information,THERMAL ZONE 1,SizingPeriod: PHOENIX SKY HARBOR INTL AP ANN CLG 2% CONDNS DP=>MDB,8.4194324612E-002,0.1625273584,Pass,Pass,0.8290994290,6.3746552293,Pass,Pass
 Warmup Convergence Information,THERMAL ZONE 11,SizingPeriod: PHOENIX SKY HARBOR INTL AP ANN CLG 2% CONDNS DP=>MDB,8.4301873550E-002,0.1646743593,Pass,Pass,0.1355908649,0.2494850686,Pass,Pass
 Warmup Convergence Information,THERMAL ZONE 12,SizingPeriod: PHOENIX SKY HARBOR INTL AP ANN CLG 2% CONDNS DP=>MDB,2.1700722551E-003,5.4797063167E-003,Pass,Pass,0.7481144115,5.7069143718,Pass,Pass
 Warmup Convergence Information,THERMAL ZONE 6,SizingPeriod: PHOENIX SKY HARBOR INTL AP ANN CLG 2% CONDNS DP=>MDB,8.4330340066E-002,0.1766315124,Pass,Pass,0.1011643276,9.3938603759E-002,Pass,Pass
 Warmup Convergence Information,THERMAL ZONE 10,SizingPeriod: PHOENIX SKY HARBOR INTL AP ANN CLG 2% CONDNS DP=>MDB,8.4182612710E-002,0.1389584901,Pass,Pass,0.6130952596,4.3123638287,Pass,Pass
 Warmup Convergence Information,THERMAL ZONE 19,SizingPeriod: PHOENIX SKY HARBOR INTL AP ANN CLG 2% CONDNS DP=>MDB,8.3775927741E-002,9.4818161833E-002,Pass,Pass,0.7484868998,6.1137850192,Pass,Pass
 Warmup Convergence Information,THERMAL ZONE 39,SizingPeriod: PHOENIX SKY HARBOR INTL AP ANN CLG 2% CONDNS DP=>MDB,8.4010359583E-002,0.1390167571,Pass,Pass,0.4471770445,2.4006411828,Pass,Pass
 Warmup Convergence Information,THERMAL ZONE 43,SizingPeriod: PHOENIX SKY HARBOR INTL AP ANN CLG 2% CONDNS DP=>MDB,8.4377033127E-002,0.1649767332,Pass,Pass,0.1633071419,0.4580816958,Pass,Pass
 Warmup Convergence Information,THERMAL ZONE 42,SizingPeriod: PHOENIX SKY HARBOR INTL AP ANN CLG 2% CONDNS DP=>MDB,6.3522557060E-002,2.8536386646E-002,Pass,Pass,4.9519303115E-003,2.0299409791E-003,Pass,Pass
 Warmup Convergence Information,THERMAL ZONE 9,SizingPeriod: PHOENIX SKY HARBOR INTL AP ANN CLG 2% CONDNS DP=>MDB,5.6473380956E-002,2.3386941719E-002,Pass,Pass,4.2495364094E-003,1.5996178213E-003,Pass,Pass
 Warmup Convergence Information,THERMAL ZONE 14,SizingPeriod: PHOENIX SKY HARBOR INTL AP ANN CLG 2% CONDNS DP=>MDB,8.4355445892E-002,0.1764780817,Pass,Pass,0.1061123158,0.1080644312,Pass,Pass
 Warmup Convergence Information,THERMAL ZONE 20,SizingPeriod: PHOENIX SKY HARBOR INTL AP ANN CLG 2% CONDNS DP=>MDB,8.3633377908E-002,9.1675888973E-002,Pass,Pass,0.2789926310,1.6239737341,Pass,Pass
 Warmup Convergence Information,THERMAL ZONE 2,SizingPeriod: PHOENIX SKY HARBOR INTL AP ANN CLG 2% CONDNS DP=>MDB,5.6545772753E-002,2.3433542102E-002,Pass,Pass,4.2614747061E-003,1.6049329819E-003,Pass,Pass
Environment,RUN PERIOD 1,WeatherFileRunPeriod,01/01,12/31,Thursday,365,Use RunPeriod Specified Day,Yes,Yes,No ,Yes,Yes
Environment:Daylight Saving,No,
Environment:WarmupDays,  6
 Warmup Convergence Information,THERMAL ZONE 7,RunPeriod: RUN PERIOD 1,4.5297657852E-002,0.1026031914,Pass,Pass,0.2442130727,0.9194862860,Pass,Pass
 Warmup Convergence Information,THERMAL ZONE 32,RunPeriod: RUN PERIOD 1,4.6558600111E-002,0.1307956196,Pass,Pass,0.3279297958,1.3718711709,Pass,Pass
 Warmup Convergence Information,THERMAL ZONE 37,RunPeriod: RUN PERIOD 1,1.6449859584E-003,1.6899776752E-003,Pass,Pass,0.2654175580,1.2663493923,Pass,Pass
 Warmup Convergence Information,THERMAL ZONE 35,RunPeriod: RUN PERIOD 1,8.8017289753E-002,0.1834190299,Pass,Pass,0.4371940783,2.0463355049,Pass,Pass
 Warmup Convergence Information,THERMAL ZONE 29,RunPeriod: RUN PERIOD 1,4.4978207139E-002,0.1024376440,Pass,Pass,0.1877501641,0.4644600876,Pass,Pass
 Warmup Convergence Information,THERMAL ZONE 17,RunPeriod: RUN PERIOD 1,4.6512927428E-002,0.1042070631,Pass,Pass,0.1975289796,0.5287034306,Pass,Pass
 Warmup Convergence Information,THERMAL ZONE 36,RunPeriod: RUN PERIOD 1,1.8581924586E-002,2.6790431604E-002,Pass,Pass,0.1648349607,0.3577101076,Pass,Pass
 Warmup Convergence Information,THERMAL ZONE 31,RunPeriod: RUN PERIOD 1,4.7379747150E-002,0.1313791927,Pass,Pass,0.2726321635,0.8321922629,Pass,Pass
 Warmup Convergence Information,THERMAL ZONE 27,RunPeriod: RUN PERIOD 1,4.7135863746E-002,0.1318009601,Pass,Pass,0.2382247543,0.6080463345,Pass,Pass
 Warmup Convergence Information,THERMAL ZONE 22,RunPeriod: RUN PERIOD 1,1.9039443826E-002,2.7263048652E-002,Pass,Pass,0.2111669617,0.6317100561,Pass,Pass
 Warmup Convergence Information,THERMAL ZONE 18,RunPeriod: RUN PERIOD 1,8.9493126282E-002,0.1831777287,Pass,Pass,0.4252972268,2.3410825019,Pass,Pass
 Warmup Convergence Information,THERMAL ZONE 41,RunPeriod: RUN PERIOD 1,6.3646216415E-002,0.1687996242,Pass,Pass,0.2092174137,0.7614456396,Pass,Pass
 Warmup Convergence Information,THERMAL ZONE 15,RunPeriod: RUN PERIOD 1,3.5919813677E-002,8.9681720073E-002,Pass,Pass,0.2131347412,0.6277937063,Pass,Pass
 Warmup Convergence Information,THERMAL ZONE 45,RunPeriod: RUN PERIOD 1,8.7342667310E-002,0.1839916392,Pass,Pass,0.3560162355,1.6189864326,Pass,Pass
 Warmup Convergence Information,THERMAL ZONE 33,RunPeriod: RUN PERIOD 1,4.5466570804E-002,0.1031822963,Pass,Pass,0.2491666407,0.9992081669,Pass,Pass
 Warmup Convergence Information,THERMAL ZONE 24,RunPeriod: RUN PERIOD 1,1.7790585906E-003,1.9494402729E-003,Pass,Pass,0.2030540366,0.7378326194,Pass,Pass
 Warmup Convergence Information,THERMAL ZONE 44,RunPeriod: RUN PERIOD 1,3.8440428440E-002,0.1112343647,Pass,Pass,0.1988688217,0.4094087385,Pass,Pass
 Warmup Convergence Information,THERMAL ZONE 38,RunPeriod: RUN PERIOD 1,6.9647507815E-002,0.1850119275,Pass,Pass,0.1806468878,0.5087618138,Pass,Pass
 Warmup Convergence Information,THERMAL ZONE 23,RunPeriod: RUN PERIOD 1,4.7504135689E-002,0.1329847844,Pass,Pass,0.2011145703,0.4189394910,Pass,Pass
 Warmup Convergence Information,THERMAL ZONE 8,RunPeriod: RUN PERIOD 1,1.9040079294E-002,2.7131873235E-002,Pass,Pass,0.2439138784,1.0199137695,Pass,Pass
 Warmup Convergence Information,THERMAL ZONE 21,RunPeriod: RUN PERIOD 1,1.5338426311E-003,1.3332765156E-003,Pass,Pass,0.3692771361,2.3548656489,Pass,Pass
 Warmup Convergence Information,THERMAL ZONE 34,RunPeriod: RUN PERIOD 1,4.5845986848E-003,1.1399274482E-002,Pass,Pass,0.1998706459,0.4707893647,Pass,Pass
 Warmup Convergence Information,THERMAL ZONE 26,RunPeriod: RUN PERIOD 1,7.9829808838E-003,1.6586296665E-002,Pass,Pass,6.0041132979E-002,7.1847107919E-002,Pass,Pass
 Warmup Convergence Information,THERMAL ZONE 40,RunPeriod: RUN PERIOD 1,1.5432209975E-003,1.3074716576E-003,Pass,Pass,0.2983342615,1.6697334768,Pass,Pass
 Warmup Convergence Information,THERMAL ZONE 16,RunPeriod: RUN PERIOD 1,9.2599695866E-002,0.1851397457,Pass,Pass,0.2454384172,0.7463397647,Pass,Pass
 Warmup Convergence Information,THERMAL ZONE 4,RunPeriod: RUN PERIOD 1,4.6141500589E-002,0.1304693616,Pass,Pass,0.4628166787,2.1558120231,Pass,Pass
 Warmup Convergence Information,THERMAL ZONE 13,RunPeriod: RUN PERIOD 1,1.3709196610E-003,1.2821527948E-003,Pass,Pass,0.4979212957,3.5265359183,Pass,Pass
 Warmup Convergence Information,THERMAL ZONE 30,RunPeriod: RUN PERIOD 1,4.5265344953E-002,0.1029092847,Pass,Pass,0.2543800284,0.9980342262,Pass,Pass
 Warmup Convergence Information,THERMAL ZONE 3,RunPeriod: RUN PERIOD 1,1.6164432387E-003,1.5592500403E-003,Pass,Pass,0.3523259176,2.2096507485,Pass,Pass
 Warmup Convergence Information,THERMAL ZONE 25,RunPeriod: RUN PERIOD 1,8.8649833273E-002,0.1832053536,Pass,Pass,0.4096605422,2.1739907600,Pass,Pass
 Warmup Convergence Information,THERMAL ZONE 5,RunPeriod: RUN PERIOD 1,8.4381950825E-002,0.1851758848,Pass,Pass,0.1885775352,0.3948820459,Pass,Pass
 Warmup Convergence Information,THERMAL ZONE 28,RunPeriod: RUN PERIOD 1,1.6583854493E-002,2.5870888773E-002,Pass,Pass,0.2492123299,0.9354132024,Pass,Pass
 Warmup Convergence Information,THERMAL ZONE 1,RunPeriod: RUN PERIOD 1,0.1153920897,0.2659864883,Pass,Pass,0.3781906440,2.1429350614,Pass,Pass
 Warmup Convergence Information,THERMAL ZONE 11,RunPeriod: RUN PERIOD 1,4.4121790691E-002,0.1020565369,Pass,Pass,0.2787368173,1.2211692460,Pass,Pass
 Warmup Convergence Information,THERMAL ZONE 12,RunPeriod: RUN PERIOD 1,6.4285859571E-003,1.2516344091E-002,Pass,Pass,9.4012870858E-002,0.1719758870,Pass,Pass
 Warmup Convergence Information,THERMAL ZONE 6,RunPeriod: RUN PERIOD 1,4.6816856537E-002,0.1311649882,Pass,Pass,0.3303758612,1.4142091968,Pass,Pass
 Warmup Convergence Information,THERMAL ZONE 10,RunPeriod: RUN PERIOD 1,8.8751073100E-002,0.1832514872,Pass,Pass,0.4342471693,2.4387814354,Pass,Pass
 Warmup Convergence Information,THERMAL ZONE 19,RunPeriod: RUN PERIOD 1,1.5104189692E-003,1.3231239128E-003,Pass,Pass,0.2808608174,1.5495353549,Pass,Pass
 Warmup Convergence Information,THERMAL ZONE 39,RunPeriod: RUN PERIOD 1,8.8274298938E-002,0.1833144649,Pass,Pass,0.4069930027,1.8569442064,Pass,Pass
 Warmup Convergence Information,THERMAL ZONE 43,RunPeriod: RUN PERIOD 1,4.4863170930E-002,0.1022127268,Pass,Pass,0.1721146957,0.3847798361,Pass,Pass
 Warmup Convergence Information,THERMAL ZONE 42,RunPeriod: RUN PERIOD 1,2.0196718097E-002,3.0717029398E-002,Pass,Pass,0.2181690260,0.6671823134,Pass,Pass
 Warmup Convergence Information,THERMAL ZONE 9,RunPeriod: RUN PERIOD 1,1.8898566178E-002,2.7046635309E-002,Pass,Pass,0.2777517969,1.3178318912,Pass,Pass
 Warmup Convergence Information,THERMAL ZONE 14,RunPeriod: RUN PERIOD 1,4.5661794229E-002,0.1288080945,Pass,Pass,0.2898929125,0.9812137300,Pass,Pass
 Warmup Convergence Information,THERMAL ZONE 20,RunPeriod: RUN PERIOD 1,1.5814390609E-003,1.5161002178E-003,Pass,Pass,0.3297841361,1.9713067948,Pass,Pass
 Warmup Convergence Information,THERMAL ZONE 2,RunPeriod: RUN PERIOD 1,1.9077727900E-002,2.7168168322E-002,Pass,Pass,2.5331340753,23.2447066534,Pass,Pass
