Program Version,EnergyPlus-Linux-OMP-32 7.2.0.006, YMD=2013.05.14 17:55
! This file shows details about the branches, nodes, and other
! elements of the flow connections.
! This file is intended for use in "debugging" potential problems
! that may also be detected by the program, but may be more easily
! identified by "eye".
! This file is also intended to support software which draws a
! schematic diagram of the HVAC system.
! ===============================================================
! #Nodes,<Number of Unique Nodes>
 #Nodes,340                 
! <Node>,<NodeNumber>,<Node Name>,<Node Fluid Type>,<# Times Node Referenced After Definition>
 Node,1,NODE 82,Air,4
 Node,2,NODE 177,Air,4
 Node,3,NODE 142,Air,4
 Node,4,NODE 97,Air,4
 Node,5,NODE 282,Air,4
 Node,6,NODE 162,Air,4
 Node,7,NODE 242,Air,4
 Node,8,NODE 147,Air,4
 Node,9,NODE 202,Air,4
 Node,10,NODE 227,Air,4
 Node,11,NODE 117,Air,4
 Node,12,NODE 77,Air,4
 Node,13,NODE 50,Air,4
 Node,14,NODE 267,Air,4
 Node,15,NODE 252,Air,4
 Node,16,NODE 182,Air,4
 Node,17,NODE 287,Air,4
 Node,18,NODE 212,Air,4
 Node,19,NODE 107,Air,4
 Node,20,NODE 152,Air,4
 Node,21,NODE 127,Air,4
 Node,22,NODE 102,Air,4
 Node,23,NODE 247,Air,4
 Node,24,NODE 192,Air,4
 Node,25,NODE 72,Air,4
 Node,26,NODE 92,Air,4
 Node,27,NODE 187,Air,4
 Node,28,NODE 112,Air,4
 Node,29,NODE 207,Air,4
 Node,30,NODE 197,Air,4
 Node,31,NODE 232,Air,4
 Node,32,NODE 87,Air,4
 Node,33,NODE 257,Air,4
 Node,34,NODE 122,Air,4
 Node,35,NODE 237,Air,4
 Node,36,NODE 167,Air,4
 Node,37,NODE 217,Air,4
 Node,38,NODE 272,Air,4
 Node,39,NODE 132,Air,4
 Node,40,NODE 277,Air,4
 Node,41,NODE 172,Air,4
 Node,42,NODE 157,Air,4
 Node,43,NODE 137,Air,4
 Node,44,NODE 222,Air,4
 Node,45,NODE 262,Air,4
 Node,46,NODE 46,Air,3
 Node,47,NODE 53,Air,6
 Node,48,NODE 54,Air,6
 Node,49,NODE 55,Air,8
 Node,50,NODE 47,Air,9
 Node,51,NODE 56,Water,2
 Node,52,NODE 62,Water,1
 Node,53,NODE 58,Water,1
 Node,54,NODE 63,Water,1
 Node,55,NODE 64,Water,1
 Node,56,NODE 65,Water,1
 Node,57,NODE 66,Water,1
 Node,58,NODE 57,Water,4
 Node,59,NODE 59,Water,2
 Node,60,PLANT LOOP 1 DEMAND INLET PIPE NODE,Water,1
 Node,61,NODE 61,Water,2
 Node,62,NODE 67,Water,1
 Node,63,NODE 70,Water,1
 Node,64,NODE 71,Water,1
 Node,65,NODE 75,Water,1
 Node,66,NODE 76,Water,1
 Node,67,NODE 80,Water,1
 Node,68,NODE 81,Water,1
 Node,69,NODE 85,Water,1
 Node,70,NODE 86,Water,1
 Node,71,NODE 90,Water,1
 Node,72,NODE 91,Water,1
 Node,73,NODE 95,Water,1
 Node,74,NODE 96,Water,1
 Node,75,NODE 100,Water,1
 Node,76,NODE 101,Water,1
 Node,77,NODE 105,Water,1
 Node,78,NODE 106,Water,1
 Node,79,NODE 110,Water,1
 Node,80,NODE 111,Water,1
 Node,81,NODE 115,Water,1
 Node,82,NODE 116,Water,1
 Node,83,NODE 120,Water,1
 Node,84,NODE 121,Water,1
 Node,85,NODE 125,Water,1
 Node,86,NODE 126,Water,1
 Node,87,NODE 130,Water,1
 Node,88,NODE 131,Water,1
 Node,89,NODE 135,Water,1
 Node,90,NODE 136,Water,1
 Node,91,NODE 140,Water,1
 Node,92,NODE 141,Water,1
 Node,93,NODE 145,Water,1
 Node,94,NODE 146,Water,1
 Node,95,NODE 150,Water,1
 Node,96,NODE 151,Water,1
 Node,97,NODE 155,Water,1
 Node,98,NODE 156,Water,1
 Node,99,NODE 160,Water,1
 Node,100,NODE 161,Water,1
 Node,101,NODE 165,Water,1
 Node,102,NODE 166,Water,1
 Node,103,NODE 170,Water,1
 Node,104,NODE 171,Water,1
 Node,105,NODE 175,Water,1
 Node,106,NODE 176,Water,1
 Node,107,NODE 180,Water,1
 Node,108,NODE 181,Water,1
 Node,109,NODE 185,Water,1
 Node,110,NODE 186,Water,1
 Node,111,NODE 190,Water,1
 Node,112,NODE 191,Water,1
 Node,113,NODE 195,Water,1
 Node,114,NODE 196,Water,1
 Node,115,NODE 200,Water,1
 Node,116,NODE 201,Water,1
 Node,117,NODE 205,Water,1
 Node,118,NODE 206,Water,1
 Node,119,NODE 210,Water,1
 Node,120,NODE 211,Water,1
 Node,121,NODE 215,Water,1
 Node,122,NODE 216,Water,1
 Node,123,NODE 220,Water,1
 Node,124,NODE 221,Water,1
 Node,125,NODE 225,Water,1
 Node,126,NODE 226,Water,1
 Node,127,NODE 230,Water,1
 Node,128,NODE 231,Water,1
 Node,129,NODE 235,Water,1
 Node,130,NODE 236,Water,1
 Node,131,NODE 240,Water,1
 Node,132,NODE 241,Water,1
 Node,133,NODE 245,Water,1
 Node,134,NODE 246,Water,1
 Node,135,NODE 250,Water,1
 Node,136,NODE 251,Water,1
 Node,137,NODE 255,Water,1
 Node,138,NODE 256,Water,1
 Node,139,NODE 260,Water,1
 Node,140,NODE 261,Water,1
 Node,141,NODE 265,Water,1
 Node,142,NODE 266,Water,1
 Node,143,NODE 270,Water,1
 Node,144,NODE 271,Water,1
 Node,145,NODE 275,Water,1
 Node,146,NODE 276,Water,1
 Node,147,NODE 280,Water,1
 Node,148,NODE 281,Water,1
 Node,149,NODE 285,Water,1
 Node,150,NODE 286,Water,1
 Node,151,NODE 290,Water,1
 Node,152,NODE 291,Water,1
 Node,153,PLANT LOOP 1 DEMAND BYPASS PIPE INLET NODE,Water,1
 Node,154,PLANT LOOP 1 DEMAND BYPASS PIPE OUTLET NODE,Water,1
 Node,155,PLANT LOOP 1 DEMAND OUTLET PIPE NODE,Water,1
 Node,156,NODE 60,Water,2
 Node,157,NODE 51,Air,2
 Node,158,NODE 7,Air,0
 Node,159,NODE 83,Air,1
 Node,160,NODE 32,Air,0
 Node,161,NODE 178,Air,1
 Node,162,NODE 37,Air,0
 Node,163,NODE 143,Air,1
 Node,164,NODE 35,Air,0
 Node,165,NODE 98,Air,1
 Node,166,NODE 29,Air,0
 Node,167,NODE 283,Air,1
 Node,168,NODE 17,Air,0
 Node,169,NODE 163,Air,1
 Node,170,NODE 36,Air,0
 Node,171,NODE 243,Air,1
 Node,172,NODE 31,Air,0
 Node,173,NODE 148,Air,1
 Node,174,NODE 27,Air,0
 Node,175,NODE 203,Air,1
 Node,176,NODE 22,Air,0
 Node,177,NODE 228,Air,1
 Node,178,NODE 18,Air,0
 Node,179,NODE 118,Air,1
 Node,180,NODE 41,Air,0
 Node,181,NODE 78,Air,1
 Node,182,NODE 15,Air,0
 Node,183,NODE 68,Air,1
 Node,184,NODE 45,Air,0
 Node,185,NODE 268,Air,1
 Node,186,NODE 33,Air,0
 Node,187,NODE 253,Air,1
 Node,188,NODE 24,Air,0
 Node,189,NODE 183,Air,1
 Node,190,NODE 44,Air,0
 Node,191,NODE 288,Air,1
 Node,192,NODE 38,Air,0
 Node,193,NODE 213,Air,1
 Node,194,NODE 23,Air,0
 Node,195,NODE 108,Air,1
 Node,196,NODE 8,Air,0
 Node,197,NODE 153,Air,1
 Node,198,NODE 21,Air,0
 Node,199,NODE 128,Air,1
 Node,200,NODE 34,Air,0
 Node,201,NODE 103,Air,1
 Node,202,NODE 26,Air,0
 Node,203,NODE 248,Air,1
 Node,204,NODE 40,Air,0
 Node,205,NODE 193,Air,1
 Node,206,NODE 16,Air,0
 Node,207,NODE 73,Air,1
 Node,208,NODE 4,Air,0
 Node,209,NODE 93,Air,1
 Node,210,NODE 13,Air,0
 Node,211,NODE 188,Air,1
 Node,212,NODE 30,Air,0
 Node,213,NODE 113,Air,1
 Node,214,NODE 3,Air,0
 Node,215,NODE 208,Air,1
 Node,216,NODE 25,Air,0
 Node,217,NODE 198,Air,1
 Node,218,NODE 5,Air,0
 Node,219,NODE 233,Air,1
 Node,220,NODE 28,Air,0
 Node,221,NODE 88,Air,1
 Node,222,NODE 1,Air,0
 Node,223,NODE 258,Air,1
 Node,224,NODE 11,Air,0
 Node,225,NODE 123,Air,1
 Node,226,NODE 12,Air,0
 Node,227,NODE 238,Air,1
 Node,228,NODE 6,Air,0
 Node,229,NODE 168,Air,1
 Node,230,NODE 10,Air,0
 Node,231,NODE 218,Air,1
 Node,232,NODE 19,Air,0
 Node,233,NODE 273,Air,1
 Node,234,NODE 39,Air,0
 Node,235,NODE 133,Air,1
 Node,236,NODE 43,Air,0
 Node,237,NODE 278,Air,1
 Node,238,NODE 42,Air,0
 Node,239,NODE 173,Air,1
 Node,240,NODE 9,Air,0
 Node,241,NODE 158,Air,1
 Node,242,NODE 14,Air,0
 Node,243,NODE 138,Air,1
 Node,244,NODE 20,Air,0
 Node,245,NODE 223,Air,1
 Node,246,NODE 2,Air,0
 Node,247,NODE 263,Air,1
 Node,248,NODE 48,Air,2
 Node,249,NODE 49,Air,2
 Node,250,NODE 69,Air,1
 Node,251,NODE 74,Air,1
 Node,252,NODE 79,Air,1
 Node,253,NODE 84,Air,1
 Node,254,NODE 89,Air,1
 Node,255,NODE 94,Air,1
 Node,256,NODE 99,Air,1
 Node,257,NODE 104,Air,1
 Node,258,NODE 109,Air,1
 Node,259,NODE 114,Air,1
 Node,260,NODE 119,Air,1
 Node,261,NODE 124,Air,1
 Node,262,NODE 129,Air,1
 Node,263,NODE 134,Air,1
 Node,264,NODE 139,Air,1
 Node,265,NODE 144,Air,1
 Node,266,NODE 149,Air,1
 Node,267,NODE 154,Air,1
 Node,268,NODE 159,Air,1
 Node,269,NODE 164,Air,1
 Node,270,NODE 169,Air,1
 Node,271,NODE 174,Air,1
 Node,272,NODE 179,Air,1
 Node,273,NODE 184,Air,1
 Node,274,NODE 189,Air,1
 Node,275,NODE 194,Air,1
 Node,276,NODE 199,Air,1
 Node,277,NODE 204,Air,1
 Node,278,NODE 209,Air,1
 Node,279,NODE 214,Air,1
 Node,280,NODE 219,Air,1
 Node,281,NODE 224,Air,1
 Node,282,NODE 229,Air,1
 Node,283,NODE 234,Air,1
 Node,284,NODE 239,Air,1
 Node,285,NODE 244,Air,1
 Node,286,NODE 249,Air,1
 Node,287,NODE 254,Air,1
 Node,288,NODE 259,Air,1
 Node,289,NODE 264,Air,1
 Node,290,NODE 269,Air,1
 Node,291,NODE 274,Air,1
 Node,292,NODE 279,Air,1
 Node,293,NODE 284,Air,1
 Node,294,NODE 289,Air,1
 Node,295,AIR TERMINAL SINGLE DUCT VAV REHEAT 2 DAMPER OUTLET,Air,1
 Node,296,AIR TERMINAL SINGLE DUCT VAV REHEAT 3 DAMPER OUTLET,Air,1
 Node,297,AIR TERMINAL SINGLE DUCT VAV REHEAT 4 DAMPER OUTLET,Air,1
 Node,298,AIR TERMINAL SINGLE DUCT VAV REHEAT 5 DAMPER OUTLET,Air,1
 Node,299,AIR TERMINAL SINGLE DUCT VAV REHEAT 6 DAMPER OUTLET,Air,1
 Node,300,AIR TERMINAL SINGLE DUCT VAV REHEAT 7 DAMPER OUTLET,Air,1
 Node,301,AIR TERMINAL SINGLE DUCT VAV REHEAT 8 DAMPER OUTLET,Air,1
 Node,302,AIR TERMINAL SINGLE DUCT VAV REHEAT 9 DAMPER OUTLET,Air,1
 Node,303,AIR TERMINAL SINGLE DUCT VAV REHEAT 10 DAMPER OUTLET,Air,1
 Node,304,AIR TERMINAL SINGLE DUCT VAV REHEAT 11 DAMPER OUTLET,Air,1
 Node,305,AIR TERMINAL SINGLE DUCT VAV REHEAT 12 DAMPER OUTLET,Air,1
 Node,306,AIR TERMINAL SINGLE DUCT VAV REHEAT 13 DAMPER OUTLET,Air,1
 Node,307,AIR TERMINAL SINGLE DUCT VAV REHEAT 14 DAMPER OUTLET,Air,1
 Node,308,AIR TERMINAL SINGLE DUCT VAV REHEAT 15 DAMPER OUTLET,Air,1
 Node,309,AIR TERMINAL SINGLE DUCT VAV REHEAT 16 DAMPER OUTLET,Air,1
 Node,310,AIR TERMINAL SINGLE DUCT VAV REHEAT 17 DAMPER OUTLET,Air,1
 Node,311,AIR TERMINAL SINGLE DUCT VAV REHEAT 18 DAMPER OUTLET,Air,1
 Node,312,AIR TERMINAL SINGLE DUCT VAV REHEAT 19 DAMPER OUTLET,Air,1
 Node,313,AIR TERMINAL SINGLE DUCT VAV REHEAT 20 DAMPER OUTLET,Air,1
 Node,314,AIR TERMINAL SINGLE DUCT VAV REHEAT 21 DAMPER OUTLET,Air,1
 Node,315,AIR TERMINAL SINGLE DUCT VAV REHEAT 22 DAMPER OUTLET,Air,1
 Node,316,AIR TERMINAL SINGLE DUCT VAV REHEAT 23 DAMPER OUTLET,Air,1
 Node,317,AIR TERMINAL SINGLE DUCT VAV REHEAT 24 DAMPER OUTLET,Air,1
 Node,318,AIR TERMINAL SINGLE DUCT VAV REHEAT 25 DAMPER OUTLET,Air,1
 Node,319,AIR TERMINAL SINGLE DUCT VAV REHEAT 26 DAMPER OUTLET,Air,1
 Node,320,AIR TERMINAL SINGLE DUCT VAV REHEAT 27 DAMPER OUTLET,Air,1
 Node,321,AIR TERMINAL SINGLE DUCT VAV REHEAT 28 DAMPER OUTLET,Air,1
 Node,322,AIR TERMINAL SINGLE DUCT VAV REHEAT 29 DAMPER OUTLET,Air,1
 Node,323,AIR TERMINAL SINGLE DUCT VAV REHEAT 30 DAMPER OUTLET,Air,1
 Node,324,AIR TERMINAL SINGLE DUCT VAV REHEAT 31 DAMPER OUTLET,Air,1
 Node,325,AIR TERMINAL SINGLE DUCT VAV REHEAT 32 DAMPER OUTLET,Air,1
 Node,326,AIR TERMINAL SINGLE DUCT VAV REHEAT 33 DAMPER OUTLET,Air,1
 Node,327,AIR TERMINAL SINGLE DUCT VAV REHEAT 34 DAMPER OUTLET,Air,1
 Node,328,AIR TERMINAL SINGLE DUCT VAV REHEAT 35 DAMPER OUTLET,Air,1
 Node,329,AIR TERMINAL SINGLE DUCT VAV REHEAT 36 DAMPER OUTLET,Air,1
 Node,330,AIR TERMINAL SINGLE DUCT VAV REHEAT 37 DAMPER OUTLET,Air,1
 Node,331,AIR TERMINAL SINGLE DUCT VAV REHEAT 38 DAMPER OUTLET,Air,1
 Node,332,AIR TERMINAL SINGLE DUCT VAV REHEAT 39 DAMPER OUTLET,Air,1
 Node,333,AIR TERMINAL SINGLE DUCT VAV REHEAT 40 DAMPER OUTLET,Air,1
 Node,334,AIR TERMINAL SINGLE DUCT VAV REHEAT 41 DAMPER OUTLET,Air,1
 Node,335,AIR TERMINAL SINGLE DUCT VAV REHEAT 42 DAMPER OUTLET,Air,1
 Node,336,AIR TERMINAL SINGLE DUCT VAV REHEAT 43 DAMPER OUTLET,Air,1
 Node,337,AIR TERMINAL SINGLE DUCT VAV REHEAT 44 DAMPER OUTLET,Air,1
 Node,338,AIR TERMINAL SINGLE DUCT VAV REHEAT 45 DAMPER OUTLET,Air,1
 Node,339,AIR TERMINAL SINGLE DUCT VAV REHEAT 46 DAMPER OUTLET,Air,1
 Node,340,NODE 52,Air,1
! ===============================================================
! Suspicious nodes have 0 references.  It is normal for some nodes, however.
! Listing nodes with 0 references (culled from previous list):
! <Suspicious Node>,<NodeNumber>,<Node Name>,<Node Fluid Type>,<# Times Node Referenced After Definition>
 Suspicious Node,158,NODE 7,Air,0
 Suspicious Node,160,NODE 32,Air,0
 Suspicious Node,162,NODE 37,Air,0
 Suspicious Node,164,NODE 35,Air,0
 Suspicious Node,166,NODE 29,Air,0
 Suspicious Node,168,NODE 17,Air,0
 Suspicious Node,170,NODE 36,Air,0
 Suspicious Node,172,NODE 31,Air,0
 Suspicious Node,174,NODE 27,Air,0
 Suspicious Node,176,NODE 22,Air,0
 Suspicious Node,178,NODE 18,Air,0
 Suspicious Node,180,NODE 41,Air,0
 Suspicious Node,182,NODE 15,Air,0
 Suspicious Node,184,NODE 45,Air,0
 Suspicious Node,186,NODE 33,Air,0
 Suspicious Node,188,NODE 24,Air,0
 Suspicious Node,190,NODE 44,Air,0
 Suspicious Node,192,NODE 38,Air,0
 Suspicious Node,194,NODE 23,Air,0
 Suspicious Node,196,NODE 8,Air,0
 Suspicious Node,198,NODE 21,Air,0
 Suspicious Node,200,NODE 34,Air,0
 Suspicious Node,202,NODE 26,Air,0
 Suspicious Node,204,NODE 40,Air,0
 Suspicious Node,206,NODE 16,Air,0
 Suspicious Node,208,NODE 4,Air,0
 Suspicious Node,210,NODE 13,Air,0
 Suspicious Node,212,NODE 30,Air,0
 Suspicious Node,214,NODE 3,Air,0
 Suspicious Node,216,NODE 25,Air,0
 Suspicious Node,218,NODE 5,Air,0
 Suspicious Node,220,NODE 28,Air,0
 Suspicious Node,222,NODE 1,Air,0
 Suspicious Node,224,NODE 11,Air,0
 Suspicious Node,226,NODE 12,Air,0
 Suspicious Node,228,NODE 6,Air,0
 Suspicious Node,230,NODE 10,Air,0
 Suspicious Node,232,NODE 19,Air,0
 Suspicious Node,234,NODE 39,Air,0
 Suspicious Node,236,NODE 43,Air,0
 Suspicious Node,238,NODE 42,Air,0
 Suspicious Node,240,NODE 9,Air,0
 Suspicious Node,242,NODE 14,Air,0
 Suspicious Node,244,NODE 20,Air,0
 Suspicious Node,246,NODE 2,Air,0
! ===============================================================
! <#Branch Lists>,<Number of Branch Lists>
 #Branch Lists,3
! <Branch List>,<Branch List Count>,<Branch List Name>,<Loop Name>,<Loop Type>,<Number of Branches>
! <Branch>,<Branch Count>,<Branch Name>,<Loop Name>,<Loop Type>,<Branch Inlet Node Name>,<Branch Outlet Node Name>
 Branch List,1,BRANCHLIST {5B0270D3-7A44-43BA-A768-ECEA94BEA50C},AIR LOOP HVAC 1,Air,1
   Branch,1,BRANCH {FD267505-60A7-4112-9C38-5AEF09859EF5},AIR LOOP HVAC 1,Air,NODE 46,NODE 47
 Branch List,2,PLANT LOOP 1 SUPPLY BRANCHES,PLANT LOOP 1,Plant Supply,4
   Branch,1,PLANT LOOP 1 SUPPLY INLET BRANCH,PLANT LOOP 1,Plant Supply,NODE 56,NODE 62
   Branch,2,PLANT LOOP 1 SUPPLY BRANCH 1,PLANT LOOP 1,Plant Supply,NODE 58,NODE 63
   Branch,3,PLANT LOOP 1 SUPPLY BRANCH 2,PLANT LOOP 1,Plant Supply,NODE 64,NODE 65
   Branch,4,PLANT LOOP 1 SUPPLY OUTLET BRANCH,PLANT LOOP 1,Plant Supply,NODE 66,NODE 57
 Branch List,3,PLANT LOOP 1 DEMAND BRANCHES,PLANT LOOP 1,Plant Demand,49
   Branch,1,PLANT LOOP 1 DEMAND INLET BRANCH,PLANT LOOP 1,Plant Demand,NODE 59,PLANT LOOP 1 DEMAND INLET PIPE NODE
   Branch,2,PLANT LOOP 1 DEMAND BRANCH 1,PLANT LOOP 1,Plant Demand,NODE 61,NODE 67
   Branch,3,PLANT LOOP 1 DEMAND BRANCH 2,PLANT LOOP 1,Plant Demand,NODE 70,NODE 71
   Branch,4,PLANT LOOP 1 DEMAND BRANCH 3,PLANT LOOP 1,Plant Demand,NODE 75,NODE 76
   Branch,5,PLANT LOOP 1 DEMAND BRANCH 4,PLANT LOOP 1,Plant Demand,NODE 80,NODE 81
   Branch,6,PLANT LOOP 1 DEMAND BRANCH 5,PLANT LOOP 1,Plant Demand,NODE 85,NODE 86
   Branch,7,PLANT LOOP 1 DEMAND BRANCH 6,PLANT LOOP 1,Plant Demand,NODE 90,NODE 91
   Branch,8,PLANT LOOP 1 DEMAND BRANCH 7,PLANT LOOP 1,Plant Demand,NODE 95,NODE 96
   Branch,9,PLANT LOOP 1 DEMAND BRANCH 8,PLANT LOOP 1,Plant Demand,NODE 100,NODE 101
   Branch,10,PLANT LOOP 1 DEMAND BRANCH 9,PLANT LOOP 1,Plant Demand,NODE 105,NODE 106
   Branch,11,PLANT LOOP 1 DEMAND BRANCH 10,PLANT LOOP 1,Plant Demand,NODE 110,NODE 111
   Branch,12,PLANT LOOP 1 DEMAND BRANCH 11,PLANT LOOP 1,Plant Demand,NODE 115,NODE 116
   Branch,13,PLANT LOOP 1 DEMAND BRANCH 12,PLANT LOOP 1,Plant Demand,NODE 120,NODE 121
   Branch,14,PLANT LOOP 1 DEMAND BRANCH 13,PLANT LOOP 1,Plant Demand,NODE 125,NODE 126
   Branch,15,PLANT LOOP 1 DEMAND BRANCH 14,PLANT LOOP 1,Plant Demand,NODE 130,NODE 131
   Branch,16,PLANT LOOP 1 DEMAND BRANCH 15,PLANT LOOP 1,Plant Demand,NODE 135,NODE 136
   Branch,17,PLANT LOOP 1 DEMAND BRANCH 16,PLANT LOOP 1,Plant Demand,NODE 140,NODE 141
   Branch,18,PLANT LOOP 1 DEMAND BRANCH 17,PLANT LOOP 1,Plant Demand,NODE 145,NODE 146
   Branch,19,PLANT LOOP 1 DEMAND BRANCH 18,PLANT LOOP 1,Plant Demand,NODE 150,NODE 151
   Branch,20,PLANT LOOP 1 DEMAND BRANCH 19,PLANT LOOP 1,Plant Demand,NODE 155,NODE 156
   Branch,21,PLANT LOOP 1 DEMAND BRANCH 20,PLANT LOOP 1,Plant Demand,NODE 160,NODE 161
   Branch,22,PLANT LOOP 1 DEMAND BRANCH 21,PLANT LOOP 1,Plant Demand,NODE 165,NODE 166
   Branch,23,PLANT LOOP 1 DEMAND BRANCH 22,PLANT LOOP 1,Plant Demand,NODE 170,NODE 171
   Branch,24,PLANT LOOP 1 DEMAND BRANCH 23,PLANT LOOP 1,Plant Demand,NODE 175,NODE 176
   Branch,25,PLANT LOOP 1 DEMAND BRANCH 24,PLANT LOOP 1,Plant Demand,NODE 180,NODE 181
   Branch,26,PLANT LOOP 1 DEMAND BRANCH 25,PLANT LOOP 1,Plant Demand,NODE 185,NODE 186
   Branch,27,PLANT LOOP 1 DEMAND BRANCH 26,PLANT LOOP 1,Plant Demand,NODE 190,NODE 191
   Branch,28,PLANT LOOP 1 DEMAND BRANCH 27,PLANT LOOP 1,Plant Demand,NODE 195,NODE 196
   Branch,29,PLANT LOOP 1 DEMAND BRANCH 28,PLANT LOOP 1,Plant Demand,NODE 200,NODE 201
   Branch,30,PLANT LOOP 1 DEMAND BRANCH 29,PLANT LOOP 1,Plant Demand,NODE 205,NODE 206
   Branch,31,PLANT LOOP 1 DEMAND BRANCH 30,PLANT LOOP 1,Plant Demand,NODE 210,NODE 211
   Branch,32,PLANT LOOP 1 DEMAND BRANCH 31,PLANT LOOP 1,Plant Demand,NODE 215,NODE 216
   Branch,33,PLANT LOOP 1 DEMAND BRANCH 32,PLANT LOOP 1,Plant Demand,NODE 220,NODE 221
   Branch,34,PLANT LOOP 1 DEMAND BRANCH 33,PLANT LOOP 1,Plant Demand,NODE 225,NODE 226
   Branch,35,PLANT LOOP 1 DEMAND BRANCH 34,PLANT LOOP 1,Plant Demand,NODE 230,NODE 231
   Branch,36,PLANT LOOP 1 DEMAND BRANCH 35,PLANT LOOP 1,Plant Demand,NODE 235,NODE 236
   Branch,37,PLANT LOOP 1 DEMAND BRANCH 36,PLANT LOOP 1,Plant Demand,NODE 240,NODE 241
   Branch,38,PLANT LOOP 1 DEMAND BRANCH 37,PLANT LOOP 1,Plant Demand,NODE 245,NODE 246
   Branch,39,PLANT LOOP 1 DEMAND BRANCH 38,PLANT LOOP 1,Plant Demand,NODE 250,NODE 251
   Branch,40,PLANT LOOP 1 DEMAND BRANCH 39,PLANT LOOP 1,Plant Demand,NODE 255,NODE 256
   Branch,41,PLANT LOOP 1 DEMAND BRANCH 40,PLANT LOOP 1,Plant Demand,NODE 260,NODE 261
   Branch,42,PLANT LOOP 1 DEMAND BRANCH 41,PLANT LOOP 1,Plant Demand,NODE 265,NODE 266
   Branch,43,PLANT LOOP 1 DEMAND BRANCH 42,PLANT LOOP 1,Plant Demand,NODE 270,NODE 271
   Branch,44,PLANT LOOP 1 DEMAND BRANCH 43,PLANT LOOP 1,Plant Demand,NODE 275,NODE 276
   Branch,45,PLANT LOOP 1 DEMAND BRANCH 44,PLANT LOOP 1,Plant Demand,NODE 280,NODE 281
   Branch,46,PLANT LOOP 1 DEMAND BRANCH 45,PLANT LOOP 1,Plant Demand,NODE 285,NODE 286
   Branch,47,PLANT LOOP 1 DEMAND BRANCH 46,PLANT LOOP 1,Plant Demand,NODE 290,NODE 291
   Branch,48,PLANT LOOP 1 DEMAND BYPASS BRANCH,PLANT LOOP 1,Plant Demand,PLANT LOOP 1 DEMAND BYPASS PIPE INLET NODE,PLANT LOOP 1 DEMAND BYPASS PIPE OUTLET NODE
   Branch,49,PLANT LOOP 1 DEMAND OUTLET BRANCH,PLANT LOOP 1,Plant Demand,PLANT LOOP 1 DEMAND OUTLET PIPE NODE,NODE 60
! ===============================================================
! <#Supply Air Paths>,<Number of Supply Air Paths>
 #Supply Air Paths,1
! <Supply Air Path>,<Supply Air Path Count>,<Supply Air Path Name>,<AirLoopHVAC Name>
! <#Components on Supply Air Path>,<Number of Components>
! <Supply Air Path Component>,<Component Count>,<Component Type>,<Component Name>,<AirLoopHVAC Name>
! <#Outlet Nodes on Supply Air Path Component>,<Number of Nodes>
! <Supply Air Path Component Nodes>,<Node Count>,<Component Type>,<Component Name>,<Inlet Node Name>,<Outlet Node Name>,<AirLoopHVAC Name>
 Supply Air Path,1,AIRLOOPHVAC:SUPPLYPATH {B5098EC3-766F-4CC6-BCA8-A0D48451CA57},AIR LOOP HVAC 1
   #Components on Supply Air Path,1
   Supply Air Path Component,1,AIRLOOPHVAC:ZONESPLITTER,AIR LOOP HVAC ZONE SPLITTER 1,AIR LOOP HVAC 1
     #Outlet Nodes on Supply Air Path Component,45
     Supply Air Path Component Nodes,1,AIRLOOPHVAC:ZONESPLITTER,AIR LOOP HVAC ZONE SPLITTER 1,NODE 48,NODE 69,AIR LOOP HVAC 1
     Supply Air Path Component Nodes,2,AIRLOOPHVAC:ZONESPLITTER,AIR LOOP HVAC ZONE SPLITTER 1,NODE 48,NODE 74,AIR LOOP HVAC 1
     Supply Air Path Component Nodes,3,AIRLOOPHVAC:ZONESPLITTER,AIR LOOP HVAC ZONE SPLITTER 1,NODE 48,NODE 79,AIR LOOP HVAC 1
     Supply Air Path Component Nodes,4,AIRLOOPHVAC:ZONESPLITTER,AIR LOOP HVAC ZONE SPLITTER 1,NODE 48,NODE 84,AIR LOOP HVAC 1
     Supply Air Path Component Nodes,5,AIRLOOPHVAC:ZONESPLITTER,AIR LOOP HVAC ZONE SPLITTER 1,NODE 48,NODE 89,AIR LOOP HVAC 1
     Supply Air Path Component Nodes,6,AIRLOOPHVAC:ZONESPLITTER,AIR LOOP HVAC ZONE SPLITTER 1,NODE 48,NODE 94,AIR LOOP HVAC 1
     Supply Air Path Component Nodes,7,AIRLOOPHVAC:ZONESPLITTER,AIR LOOP HVAC ZONE SPLITTER 1,NODE 48,NODE 99,AIR LOOP HVAC 1
     Supply Air Path Component Nodes,8,AIRLOOPHVAC:ZONESPLITTER,AIR LOOP HVAC ZONE SPLITTER 1,NODE 48,NODE 104,AIR LOOP HVAC 1
     Supply Air Path Component Nodes,9,AIRLOOPHVAC:ZONESPLITTER,AIR LOOP HVAC ZONE SPLITTER 1,NODE 48,NODE 109,AIR LOOP HVAC 1
     Supply Air Path Component Nodes,10,AIRLOOPHVAC:ZONESPLITTER,AIR LOOP HVAC ZONE SPLITTER 1,NODE 48,NODE 114,AIR LOOP HVAC 1
     Supply Air Path Component Nodes,11,AIRLOOPHVAC:ZONESPLITTER,AIR LOOP HVAC ZONE SPLITTER 1,NODE 48,NODE 119,AIR LOOP HVAC 1
     Supply Air Path Component Nodes,12,AIRLOOPHVAC:ZONESPLITTER,AIR LOOP HVAC ZONE SPLITTER 1,NODE 48,NODE 124,AIR LOOP HVAC 1
     Supply Air Path Component Nodes,13,AIRLOOPHVAC:ZONESPLITTER,AIR LOOP HVAC ZONE SPLITTER 1,NODE 48,NODE 129,AIR LOOP HVAC 1
     Supply Air Path Component Nodes,14,AIRLOOPHVAC:ZONESPLITTER,AIR LOOP HVAC ZONE SPLITTER 1,NODE 48,NODE 134,AIR LOOP HVAC 1
     Supply Air Path Component Nodes,15,AIRLOOPHVAC:ZONESPLITTER,AIR LOOP HVAC ZONE SPLITTER 1,NODE 48,NODE 139,AIR LOOP HVAC 1
     Supply Air Path Component Nodes,16,AIRLOOPHVAC:ZONESPLITTER,AIR LOOP HVAC ZONE SPLITTER 1,NODE 48,NODE 144,AIR LOOP HVAC 1
     Supply Air Path Component Nodes,17,AIRLOOPHVAC:ZONESPLITTER,AIR LOOP HVAC ZONE SPLITTER 1,NODE 48,NODE 149,AIR LOOP HVAC 1
     Supply Air Path Component Nodes,18,AIRLOOPHVAC:ZONESPLITTER,AIR LOOP HVAC ZONE SPLITTER 1,NODE 48,NODE 154,AIR LOOP HVAC 1
     Supply Air Path Component Nodes,19,AIRLOOPHVAC:ZONESPLITTER,AIR LOOP HVAC ZONE SPLITTER 1,NODE 48,NODE 159,AIR LOOP HVAC 1
     Supply Air Path Component Nodes,20,AIRLOOPHVAC:ZONESPLITTER,AIR LOOP HVAC ZONE SPLITTER 1,NODE 48,NODE 164,AIR LOOP HVAC 1
     Supply Air Path Component Nodes,21,AIRLOOPHVAC:ZONESPLITTER,AIR LOOP HVAC ZONE SPLITTER 1,NODE 48,NODE 169,AIR LOOP HVAC 1
     Supply Air Path Component Nodes,22,AIRLOOPHVAC:ZONESPLITTER,AIR LOOP HVAC ZONE SPLITTER 1,NODE 48,NODE 174,AIR LOOP HVAC 1
     Supply Air Path Component Nodes,23,AIRLOOPHVAC:ZONESPLITTER,AIR LOOP HVAC ZONE SPLITTER 1,NODE 48,NODE 179,AIR LOOP HVAC 1
     Supply Air Path Component Nodes,24,AIRLOOPHVAC:ZONESPLITTER,AIR LOOP HVAC ZONE SPLITTER 1,NODE 48,NODE 184,AIR LOOP HVAC 1
     Supply Air Path Component Nodes,25,AIRLOOPHVAC:ZONESPLITTER,AIR LOOP HVAC ZONE SPLITTER 1,NODE 48,NODE 189,AIR LOOP HVAC 1
     Supply Air Path Component Nodes,26,AIRLOOPHVAC:ZONESPLITTER,AIR LOOP HVAC ZONE SPLITTER 1,NODE 48,NODE 194,AIR LOOP HVAC 1
     Supply Air Path Component Nodes,27,AIRLOOPHVAC:ZONESPLITTER,AIR LOOP HVAC ZONE SPLITTER 1,NODE 48,NODE 199,AIR LOOP HVAC 1
     Supply Air Path Component Nodes,28,AIRLOOPHVAC:ZONESPLITTER,AIR LOOP HVAC ZONE SPLITTER 1,NODE 48,NODE 204,AIR LOOP HVAC 1
     Supply Air Path Component Nodes,29,AIRLOOPHVAC:ZONESPLITTER,AIR LOOP HVAC ZONE SPLITTER 1,NODE 48,NODE 209,AIR LOOP HVAC 1
     Supply Air Path Component Nodes,30,AIRLOOPHVAC:ZONESPLITTER,AIR LOOP HVAC ZONE SPLITTER 1,NODE 48,NODE 214,AIR LOOP HVAC 1
     Supply Air Path Component Nodes,31,AIRLOOPHVAC:ZONESPLITTER,AIR LOOP HVAC ZONE SPLITTER 1,NODE 48,NODE 219,AIR LOOP HVAC 1
     Supply Air Path Component Nodes,32,AIRLOOPHVAC:ZONESPLITTER,AIR LOOP HVAC ZONE SPLITTER 1,NODE 48,NODE 224,AIR LOOP HVAC 1
     Supply Air Path Component Nodes,33,AIRLOOPHVAC:ZONESPLITTER,AIR LOOP HVAC ZONE SPLITTER 1,NODE 48,NODE 229,AIR LOOP HVAC 1
     Supply Air Path Component Nodes,34,AIRLOOPHVAC:ZONESPLITTER,AIR LOOP HVAC ZONE SPLITTER 1,NODE 48,NODE 234,AIR LOOP HVAC 1
     Supply Air Path Component Nodes,35,AIRLOOPHVAC:ZONESPLITTER,AIR LOOP HVAC ZONE SPLITTER 1,NODE 48,NODE 239,AIR LOOP HVAC 1
     Supply Air Path Component Nodes,36,AIRLOOPHVAC:ZONESPLITTER,AIR LOOP HVAC ZONE SPLITTER 1,NODE 48,NODE 244,AIR LOOP HVAC 1
     Supply Air Path Component Nodes,37,AIRLOOPHVAC:ZONESPLITTER,AIR LOOP HVAC ZONE SPLITTER 1,NODE 48,NODE 249,AIR LOOP HVAC 1
     Supply Air Path Component Nodes,38,AIRLOOPHVAC:ZONESPLITTER,AIR LOOP HVAC ZONE SPLITTER 1,NODE 48,NODE 254,AIR LOOP HVAC 1
     Supply Air Path Component Nodes,39,AIRLOOPHVAC:ZONESPLITTER,AIR LOOP HVAC ZONE SPLITTER 1,NODE 48,NODE 259,AIR LOOP HVAC 1
     Supply Air Path Component Nodes,40,AIRLOOPHVAC:ZONESPLITTER,AIR LOOP HVAC ZONE SPLITTER 1,NODE 48,NODE 264,AIR LOOP HVAC 1
     Supply Air Path Component Nodes,41,AIRLOOPHVAC:ZONESPLITTER,AIR LOOP HVAC ZONE SPLITTER 1,NODE 48,NODE 269,AIR LOOP HVAC 1
     Supply Air Path Component Nodes,42,AIRLOOPHVAC:ZONESPLITTER,AIR LOOP HVAC ZONE SPLITTER 1,NODE 48,NODE 274,AIR LOOP HVAC 1
     Supply Air Path Component Nodes,43,AIRLOOPHVAC:ZONESPLITTER,AIR LOOP HVAC ZONE SPLITTER 1,NODE 48,NODE 279,AIR LOOP HVAC 1
     Supply Air Path Component Nodes,44,AIRLOOPHVAC:ZONESPLITTER,AIR LOOP HVAC ZONE SPLITTER 1,NODE 48,NODE 284,AIR LOOP HVAC 1
     Supply Air Path Component Nodes,45,AIRLOOPHVAC:ZONESPLITTER,AIR LOOP HVAC ZONE SPLITTER 1,NODE 48,NODE 289,AIR LOOP HVAC 1
! <#Nodes on Supply Air Path>,<Number of Nodes>
! <Supply Air Path Node>,<Node Type>,<Node Count>,<Node Name>,<AirLoopHVAC Name>
#Nodes on Supply Air Path,46
   Supply Air Path Node,Inlet Node,1,NODE 48,AIR LOOP HVAC 1
   Supply Air Path Node,Outlet Node,2,NODE 69,AIR LOOP HVAC 1
   Supply Air Path Node,Outlet Node,3,NODE 74,AIR LOOP HVAC 1
   Supply Air Path Node,Outlet Node,4,NODE 79,AIR LOOP HVAC 1
   Supply Air Path Node,Outlet Node,5,NODE 84,AIR LOOP HVAC 1
   Supply Air Path Node,Outlet Node,6,NODE 89,AIR LOOP HVAC 1
   Supply Air Path Node,Outlet Node,7,NODE 94,AIR LOOP HVAC 1
   Supply Air Path Node,Outlet Node,8,NODE 99,AIR LOOP HVAC 1
   Supply Air Path Node,Outlet Node,9,NODE 104,AIR LOOP HVAC 1
   Supply Air Path Node,Outlet Node,10,NODE 109,AIR LOOP HVAC 1
   Supply Air Path Node,Outlet Node,11,NODE 114,AIR LOOP HVAC 1
   Supply Air Path Node,Outlet Node,12,NODE 119,AIR LOOP HVAC 1
   Supply Air Path Node,Outlet Node,13,NODE 124,AIR LOOP HVAC 1
   Supply Air Path Node,Outlet Node,14,NODE 129,AIR LOOP HVAC 1
   Supply Air Path Node,Outlet Node,15,NODE 134,AIR LOOP HVAC 1
   Supply Air Path Node,Outlet Node,16,NODE 139,AIR LOOP HVAC 1
   Supply Air Path Node,Outlet Node,17,NODE 144,AIR LOOP HVAC 1
   Supply Air Path Node,Outlet Node,18,NODE 149,AIR LOOP HVAC 1
   Supply Air Path Node,Outlet Node,19,NODE 154,AIR LOOP HVAC 1
   Supply Air Path Node,Outlet Node,20,NODE 159,AIR LOOP HVAC 1
   Supply Air Path Node,Outlet Node,21,NODE 164,AIR LOOP HVAC 1
   Supply Air Path Node,Outlet Node,22,NODE 169,AIR LOOP HVAC 1
   Supply Air Path Node,Outlet Node,23,NODE 174,AIR LOOP HVAC 1
   Supply Air Path Node,Outlet Node,24,NODE 179,AIR LOOP HVAC 1
   Supply Air Path Node,Outlet Node,25,NODE 184,AIR LOOP HVAC 1
   Supply Air Path Node,Outlet Node,26,NODE 189,AIR LOOP HVAC 1
   Supply Air Path Node,Outlet Node,27,NODE 194,AIR LOOP HVAC 1
   Supply Air Path Node,Outlet Node,28,NODE 199,AIR LOOP HVAC 1
   Supply Air Path Node,Outlet Node,29,NODE 204,AIR LOOP HVAC 1
   Supply Air Path Node,Outlet Node,30,NODE 209,AIR LOOP HVAC 1
   Supply Air Path Node,Outlet Node,31,NODE 214,AIR LOOP HVAC 1
   Supply Air Path Node,Outlet Node,32,NODE 219,AIR LOOP HVAC 1
   Supply Air Path Node,Outlet Node,33,NODE 224,AIR LOOP HVAC 1
   Supply Air Path Node,Outlet Node,34,NODE 229,AIR LOOP HVAC 1
   Supply Air Path Node,Outlet Node,35,NODE 234,AIR LOOP HVAC 1
   Supply Air Path Node,Outlet Node,36,NODE 239,AIR LOOP HVAC 1
   Supply Air Path Node,Outlet Node,37,NODE 244,AIR LOOP HVAC 1
   Supply Air Path Node,Outlet Node,38,NODE 249,AIR LOOP HVAC 1
   Supply Air Path Node,Outlet Node,39,NODE 254,AIR LOOP HVAC 1
   Supply Air Path Node,Outlet Node,40,NODE 259,AIR LOOP HVAC 1
   Supply Air Path Node,Outlet Node,41,NODE 264,AIR LOOP HVAC 1
   Supply Air Path Node,Outlet Node,42,NODE 269,AIR LOOP HVAC 1
   Supply Air Path Node,Outlet Node,43,NODE 274,AIR LOOP HVAC 1
   Supply Air Path Node,Outlet Node,44,NODE 279,AIR LOOP HVAC 1
   Supply Air Path Node,Outlet Node,45,NODE 284,AIR LOOP HVAC 1
   Supply Air Path Node,Outlet Node,46,NODE 289,AIR LOOP HVAC 1
! ===============================================================
! <#Return Air Paths>,<Number of Return Air Paths>
 #Return Air Paths,1
! <Return Air Path>,<Return Air Path Count>,<Return Air Path Name>,<AirLoopHVAC Name>
! <#Components on Return Air Path>,<Number of Components>
! <Return Air Path Component>,<Component Count>,<Component Type>,<Component Name>,<AirLoopHVAC Name>
! <#Inlet Nodes on Return Air Path Component>,<Number of Nodes>
! <Return Air Path Component Nodes>,<Node Count>,<Component Type>,<Component Name>,<Inlet Node Name>,<Outlet Node Name>,<AirLoopHVAC Name>
 Return Air Path,1,AIRLOOPHVAC:RETURNPATH {CB0FA59E-4AB4-47E9-9270-05858E9BD312},AIR LOOP HVAC 1
   #Components on Return Air Path,1
   Return Air Path Component,1,AIRLOOPHVAC:ZONEMIXER,AIR LOOP HVAC ZONE MIXER 1,AIR LOOP HVAC 1
     #Inlet Nodes on Return Air Path Component,45
     Return Air Path Component Nodes,1,AIRLOOPHVAC:ZONEMIXER,AIR LOOP HVAC ZONE MIXER 1,NODE 68,NODE 49,AIR LOOP HVAC 1
     Return Air Path Component Nodes,2,AIRLOOPHVAC:ZONEMIXER,AIR LOOP HVAC ZONE MIXER 1,NODE 73,NODE 49,AIR LOOP HVAC 1
     Return Air Path Component Nodes,3,AIRLOOPHVAC:ZONEMIXER,AIR LOOP HVAC ZONE MIXER 1,NODE 78,NODE 49,AIR LOOP HVAC 1
     Return Air Path Component Nodes,4,AIRLOOPHVAC:ZONEMIXER,AIR LOOP HVAC ZONE MIXER 1,NODE 83,NODE 49,AIR LOOP HVAC 1
     Return Air Path Component Nodes,5,AIRLOOPHVAC:ZONEMIXER,AIR LOOP HVAC ZONE MIXER 1,NODE 88,NODE 49,AIR LOOP HVAC 1
     Return Air Path Component Nodes,6,AIRLOOPHVAC:ZONEMIXER,AIR LOOP HVAC ZONE MIXER 1,NODE 93,NODE 49,AIR LOOP HVAC 1
     Return Air Path Component Nodes,7,AIRLOOPHVAC:ZONEMIXER,AIR LOOP HVAC ZONE MIXER 1,NODE 98,NODE 49,AIR LOOP HVAC 1
     Return Air Path Component Nodes,8,AIRLOOPHVAC:ZONEMIXER,AIR LOOP HVAC ZONE MIXER 1,NODE 103,NODE 49,AIR LOOP HVAC 1
     Return Air Path Component Nodes,9,AIRLOOPHVAC:ZONEMIXER,AIR LOOP HVAC ZONE MIXER 1,NODE 108,NODE 49,AIR LOOP HVAC 1
     Return Air Path Component Nodes,10,AIRLOOPHVAC:ZONEMIXER,AIR LOOP HVAC ZONE MIXER 1,NODE 113,NODE 49,AIR LOOP HVAC 1
     Return Air Path Component Nodes,11,AIRLOOPHVAC:ZONEMIXER,AIR LOOP HVAC ZONE MIXER 1,NODE 118,NODE 49,AIR LOOP HVAC 1
     Return Air Path Component Nodes,12,AIRLOOPHVAC:ZONEMIXER,AIR LOOP HVAC ZONE MIXER 1,NODE 123,NODE 49,AIR LOOP HVAC 1
     Return Air Path Component Nodes,13,AIRLOOPHVAC:ZONEMIXER,AIR LOOP HVAC ZONE MIXER 1,NODE 128,NODE 49,AIR LOOP HVAC 1
     Return Air Path Component Nodes,14,AIRLOOPHVAC:ZONEMIXER,AIR LOOP HVAC ZONE MIXER 1,NODE 133,NODE 49,AIR LOOP HVAC 1
     Return Air Path Component Nodes,15,AIRLOOPHVAC:ZONEMIXER,AIR LOOP HVAC ZONE MIXER 1,NODE 138,NODE 49,AIR LOOP HVAC 1
     Return Air Path Component Nodes,16,AIRLOOPHVAC:ZONEMIXER,AIR LOOP HVAC ZONE MIXER 1,NODE 143,NODE 49,AIR LOOP HVAC 1
     Return Air Path Component Nodes,17,AIRLOOPHVAC:ZONEMIXER,AIR LOOP HVAC ZONE MIXER 1,NODE 148,NODE 49,AIR LOOP HVAC 1
     Return Air Path Component Nodes,18,AIRLOOPHVAC:ZONEMIXER,AIR LOOP HVAC ZONE MIXER 1,NODE 153,NODE 49,AIR LOOP HVAC 1
     Return Air Path Component Nodes,19,AIRLOOPHVAC:ZONEMIXER,AIR LOOP HVAC ZONE MIXER 1,NODE 158,NODE 49,AIR LOOP HVAC 1
     Return Air Path Component Nodes,20,AIRLOOPHVAC:ZONEMIXER,AIR LOOP HVAC ZONE MIXER 1,NODE 163,NODE 49,AIR LOOP HVAC 1
     Return Air Path Component Nodes,21,AIRLOOPHVAC:ZONEMIXER,AIR LOOP HVAC ZONE MIXER 1,NODE 168,NODE 49,AIR LOOP HVAC 1
     Return Air Path Component Nodes,22,AIRLOOPHVAC:ZONEMIXER,AIR LOOP HVAC ZONE MIXER 1,NODE 173,NODE 49,AIR LOOP HVAC 1
     Return Air Path Component Nodes,23,AIRLOOPHVAC:ZONEMIXER,AIR LOOP HVAC ZONE MIXER 1,NODE 178,NODE 49,AIR LOOP HVAC 1
     Return Air Path Component Nodes,24,AIRLOOPHVAC:ZONEMIXER,AIR LOOP HVAC ZONE MIXER 1,NODE 183,NODE 49,AIR LOOP HVAC 1
     Return Air Path Component Nodes,25,AIRLOOPHVAC:ZONEMIXER,AIR LOOP HVAC ZONE MIXER 1,NODE 188,NODE 49,AIR LOOP HVAC 1
     Return Air Path Component Nodes,26,AIRLOOPHVAC:ZONEMIXER,AIR LOOP HVAC ZONE MIXER 1,NODE 193,NODE 49,AIR LOOP HVAC 1
     Return Air Path Component Nodes,27,AIRLOOPHVAC:ZONEMIXER,AIR LOOP HVAC ZONE MIXER 1,NODE 198,NODE 49,AIR LOOP HVAC 1
     Return Air Path Component Nodes,28,AIRLOOPHVAC:ZONEMIXER,AIR LOOP HVAC ZONE MIXER 1,NODE 203,NODE 49,AIR LOOP HVAC 1
     Return Air Path Component Nodes,29,AIRLOOPHVAC:ZONEMIXER,AIR LOOP HVAC ZONE MIXER 1,NODE 208,NODE 49,AIR LOOP HVAC 1
     Return Air Path Component Nodes,30,AIRLOOPHVAC:ZONEMIXER,AIR LOOP HVAC ZONE MIXER 1,NODE 213,NODE 49,AIR LOOP HVAC 1
     Return Air Path Component Nodes,31,AIRLOOPHVAC:ZONEMIXER,AIR LOOP HVAC ZONE MIXER 1,NODE 218,NODE 49,AIR LOOP HVAC 1
     Return Air Path Component Nodes,32,AIRLOOPHVAC:ZONEMIXER,AIR LOOP HVAC ZONE MIXER 1,NODE 223,NODE 49,AIR LOOP HVAC 1
     Return Air Path Component Nodes,33,AIRLOOPHVAC:ZONEMIXER,AIR LOOP HVAC ZONE MIXER 1,NODE 228,NODE 49,AIR LOOP HVAC 1
     Return Air Path Component Nodes,34,AIRLOOPHVAC:ZONEMIXER,AIR LOOP HVAC ZONE MIXER 1,NODE 233,NODE 49,AIR LOOP HVAC 1
     Return Air Path Component Nodes,35,AIRLOOPHVAC:ZONEMIXER,AIR LOOP HVAC ZONE MIXER 1,NODE 238,NODE 49,AIR LOOP HVAC 1
     Return Air Path Component Nodes,36,AIRLOOPHVAC:ZONEMIXER,AIR LOOP HVAC ZONE MIXER 1,NODE 243,NODE 49,AIR LOOP HVAC 1
     Return Air Path Component Nodes,37,AIRLOOPHVAC:ZONEMIXER,AIR LOOP HVAC ZONE MIXER 1,NODE 248,NODE 49,AIR LOOP HVAC 1
     Return Air Path Component Nodes,38,AIRLOOPHVAC:ZONEMIXER,AIR LOOP HVAC ZONE MIXER 1,NODE 253,NODE 49,AIR LOOP HVAC 1
     Return Air Path Component Nodes,39,AIRLOOPHVAC:ZONEMIXER,AIR LOOP HVAC ZONE MIXER 1,NODE 258,NODE 49,AIR LOOP HVAC 1
     Return Air Path Component Nodes,40,AIRLOOPHVAC:ZONEMIXER,AIR LOOP HVAC ZONE MIXER 1,NODE 263,NODE 49,AIR LOOP HVAC 1
     Return Air Path Component Nodes,41,AIRLOOPHVAC:ZONEMIXER,AIR LOOP HVAC ZONE MIXER 1,NODE 268,NODE 49,AIR LOOP HVAC 1
     Return Air Path Component Nodes,42,AIRLOOPHVAC:ZONEMIXER,AIR LOOP HVAC ZONE MIXER 1,NODE 273,NODE 49,AIR LOOP HVAC 1
     Return Air Path Component Nodes,43,AIRLOOPHVAC:ZONEMIXER,AIR LOOP HVAC ZONE MIXER 1,NODE 278,NODE 49,AIR LOOP HVAC 1
     Return Air Path Component Nodes,44,AIRLOOPHVAC:ZONEMIXER,AIR LOOP HVAC ZONE MIXER 1,NODE 283,NODE 49,AIR LOOP HVAC 1
     Return Air Path Component Nodes,45,AIRLOOPHVAC:ZONEMIXER,AIR LOOP HVAC ZONE MIXER 1,NODE 288,NODE 49,AIR LOOP HVAC 1
! <#Nodes on Return Air Path>,<Number of Nodes>
! <Return Air Path Node>,<Node Type>,<Node Count>,<Node Name>,<AirLoopHVAC Name>
   #Nodes on Return Air Path,46
   Return Air Path Node,Outlet Node,1,NODE 49,AIR LOOP HVAC 1
   Return Air Path Node,Inlet Node,2,NODE 68,AIR LOOP HVAC 1
   Return Air Path Node,Inlet Node,3,NODE 73,AIR LOOP HVAC 1
   Return Air Path Node,Inlet Node,4,NODE 78,AIR LOOP HVAC 1
   Return Air Path Node,Inlet Node,5,NODE 83,AIR LOOP HVAC 1
   Return Air Path Node,Inlet Node,6,NODE 88,AIR LOOP HVAC 1
   Return Air Path Node,Inlet Node,7,NODE 93,AIR LOOP HVAC 1
   Return Air Path Node,Inlet Node,8,NODE 98,AIR LOOP HVAC 1
   Return Air Path Node,Inlet Node,9,NODE 103,AIR LOOP HVAC 1
   Return Air Path Node,Inlet Node,10,NODE 108,AIR LOOP HVAC 1
   Return Air Path Node,Inlet Node,11,NODE 113,AIR LOOP HVAC 1
   Return Air Path Node,Inlet Node,12,NODE 118,AIR LOOP HVAC 1
   Return Air Path Node,Inlet Node,13,NODE 123,AIR LOOP HVAC 1
   Return Air Path Node,Inlet Node,14,NODE 128,AIR LOOP HVAC 1
   Return Air Path Node,Inlet Node,15,NODE 133,AIR LOOP HVAC 1
   Return Air Path Node,Inlet Node,16,NODE 138,AIR LOOP HVAC 1
   Return Air Path Node,Inlet Node,17,NODE 143,AIR LOOP HVAC 1
   Return Air Path Node,Inlet Node,18,NODE 148,AIR LOOP HVAC 1
   Return Air Path Node,Inlet Node,19,NODE 153,AIR LOOP HVAC 1
   Return Air Path Node,Inlet Node,20,NODE 158,AIR LOOP HVAC 1
   Return Air Path Node,Inlet Node,21,NODE 163,AIR LOOP HVAC 1
   Return Air Path Node,Inlet Node,22,NODE 168,AIR LOOP HVAC 1
   Return Air Path Node,Inlet Node,23,NODE 173,AIR LOOP HVAC 1
   Return Air Path Node,Inlet Node,24,NODE 178,AIR LOOP HVAC 1
   Return Air Path Node,Inlet Node,25,NODE 183,AIR LOOP HVAC 1
   Return Air Path Node,Inlet Node,26,NODE 188,AIR LOOP HVAC 1
   Return Air Path Node,Inlet Node,27,NODE 193,AIR LOOP HVAC 1
   Return Air Path Node,Inlet Node,28,NODE 198,AIR LOOP HVAC 1
   Return Air Path Node,Inlet Node,29,NODE 203,AIR LOOP HVAC 1
   Return Air Path Node,Inlet Node,30,NODE 208,AIR LOOP HVAC 1
   Return Air Path Node,Inlet Node,31,NODE 213,AIR LOOP HVAC 1
   Return Air Path Node,Inlet Node,32,NODE 218,AIR LOOP HVAC 1
   Return Air Path Node,Inlet Node,33,NODE 223,AIR LOOP HVAC 1
   Return Air Path Node,Inlet Node,34,NODE 228,AIR LOOP HVAC 1
   Return Air Path Node,Inlet Node,35,NODE 233,AIR LOOP HVAC 1
   Return Air Path Node,Inlet Node,36,NODE 238,AIR LOOP HVAC 1
   Return Air Path Node,Inlet Node,37,NODE 243,AIR LOOP HVAC 1
   Return Air Path Node,Inlet Node,38,NODE 248,AIR LOOP HVAC 1
   Return Air Path Node,Inlet Node,39,NODE 253,AIR LOOP HVAC 1
   Return Air Path Node,Inlet Node,40,NODE 258,AIR LOOP HVAC 1
   Return Air Path Node,Inlet Node,41,NODE 263,AIR LOOP HVAC 1
   Return Air Path Node,Inlet Node,42,NODE 268,AIR LOOP HVAC 1
   Return Air Path Node,Inlet Node,43,NODE 273,AIR LOOP HVAC 1
   Return Air Path Node,Inlet Node,44,NODE 278,AIR LOOP HVAC 1
   Return Air Path Node,Inlet Node,45,NODE 283,AIR LOOP HVAC 1
   Return Air Path Node,Inlet Node,46,NODE 288,AIR LOOP HVAC 1
! ===============================================================
! #Outdoor Air Nodes,<Number of Outdoor Air Nodes>
 #Outdoor Air Nodes,1                   
! <Outdoor Air Node>,<NodeNumber>,<Node Name>
 Outdoor Air Node,157,NODE 51
! ===============================================================
! <#Component Sets>,<Number of Component Sets>
 #Component Sets,149
! <Component Set>,<Component Set Count>,<Parent Object Type>,<Parent Object Name>,<Component Type>,<Component Name>,<Inlet Node ID>,<Outlet Node ID>,<Description>
 Component Set,1,BRANCH,BRANCH {FD267505-60A7-4112-9C38-5AEF09859EF5},AIRLOOPHVAC:OUTDOORAIRSYSTEM,AIR LOOP HVAC OUTDOOR AIR SYSTEM 1,NODE 46,NODE 53,Air Nodes
 Component Set,2,BRANCH,BRANCH {FD267505-60A7-4112-9C38-5AEF09859EF5},COILSYSTEM:COOLING:DX,COIL COOLING DX TWO SPEED 1 COILSYSTEM,NODE 53,NODE 54,Air Nodes
 Component Set,3,BRANCH,BRANCH {FD267505-60A7-4112-9C38-5AEF09859EF5},COIL:HEATING:WATER,COIL HEATING WATER 1,NODE 54,NODE 55,Air Nodes
 Component Set,4,BRANCH,BRANCH {FD267505-60A7-4112-9C38-5AEF09859EF5},FAN:VARIABLEVOLUME,FAN VARIABLE VOLUME 1,NODE 55,NODE 47,Air Nodes
 Component Set,5,BRANCH,PLANT LOOP 1 SUPPLY INLET BRANCH,PUMP:VARIABLESPEED,PUMP VARIABLE SPEED 1,NODE 56,NODE 62,Water Nodes
 Component Set,6,BRANCH,PLANT LOOP 1 SUPPLY BRANCH 1,BOILER:HOTWATER,BOILER HOT WATER 1,NODE 58,NODE 63,Hot Water Nodes
 Component Set,7,BRANCH,PLANT LOOP 1 SUPPLY BRANCH 2,PIPE:ADIABATIC,PIPE ADIABATIC 1,NODE 64,NODE 65,Pipe Nodes
 Component Set,8,BRANCH,PLANT LOOP 1 SUPPLY OUTLET BRANCH,PIPE:ADIABATIC,PIPE ADIABATIC 2,NODE 66,NODE 57,Pipe Nodes
 Component Set,9,BRANCH,PLANT LOOP 1 DEMAND INLET BRANCH,PIPE:ADIABATIC,PLANT LOOP 1 DEMAND INLET PIPE,NODE 59,PLANT LOOP 1 DEMAND INLET PIPE NODE,Pipe Nodes
 Component Set,10,BRANCH,PLANT LOOP 1 DEMAND BRANCH 1,COIL:HEATING:WATER,COIL HEATING WATER 1,NODE 61,NODE 67,Water Nodes
 Component Set,11,BRANCH,PLANT LOOP 1 DEMAND BRANCH 2,COIL:HEATING:WATER,COIL HEATING WATER 3,NODE 70,NODE 71,Water Nodes
 Component Set,12,BRANCH,PLANT LOOP 1 DEMAND BRANCH 3,COIL:HEATING:WATER,COIL HEATING WATER 4,NODE 75,NODE 76,Water Nodes
 Component Set,13,BRANCH,PLANT LOOP 1 DEMAND BRANCH 4,COIL:HEATING:WATER,COIL HEATING WATER 5,NODE 80,NODE 81,Water Nodes
 Component Set,14,BRANCH,PLANT LOOP 1 DEMAND BRANCH 5,COIL:HEATING:WATER,COIL HEATING WATER 6,NODE 85,NODE 86,Water Nodes
 Component Set,15,BRANCH,PLANT LOOP 1 DEMAND BRANCH 6,COIL:HEATING:WATER,COIL HEATING WATER 7,NODE 90,NODE 91,Water Nodes
 Component Set,16,BRANCH,PLANT LOOP 1 DEMAND BRANCH 7,COIL:HEATING:WATER,COIL HEATING WATER 8,NODE 95,NODE 96,Water Nodes
 Component Set,17,BRANCH,PLANT LOOP 1 DEMAND BRANCH 8,COIL:HEATING:WATER,COIL HEATING WATER 9,NODE 100,NODE 101,Water Nodes
 Component Set,18,BRANCH,PLANT LOOP 1 DEMAND BRANCH 9,COIL:HEATING:WATER,COIL HEATING WATER 10,NODE 105,NODE 106,Water Nodes
 Component Set,19,BRANCH,PLANT LOOP 1 DEMAND BRANCH 10,COIL:HEATING:WATER,COIL HEATING WATER 11,NODE 110,NODE 111,Water Nodes
 Component Set,20,BRANCH,PLANT LOOP 1 DEMAND BRANCH 11,COIL:HEATING:WATER,COIL HEATING WATER 12,NODE 115,NODE 116,Water Nodes
 Component Set,21,BRANCH,PLANT LOOP 1 DEMAND BRANCH 12,COIL:HEATING:WATER,COIL HEATING WATER 13,NODE 120,NODE 121,Water Nodes
 Component Set,22,BRANCH,PLANT LOOP 1 DEMAND BRANCH 13,COIL:HEATING:WATER,COIL HEATING WATER 14,NODE 125,NODE 126,Water Nodes
 Component Set,23,BRANCH,PLANT LOOP 1 DEMAND BRANCH 14,COIL:HEATING:WATER,COIL HEATING WATER 15,NODE 130,NODE 131,Water Nodes
 Component Set,24,BRANCH,PLANT LOOP 1 DEMAND BRANCH 15,COIL:HEATING:WATER,COIL HEATING WATER 16,NODE 135,NODE 136,Water Nodes
 Component Set,25,BRANCH,PLANT LOOP 1 DEMAND BRANCH 16,COIL:HEATING:WATER,COIL HEATING WATER 17,NODE 140,NODE 141,Water Nodes
 Component Set,26,BRANCH,PLANT LOOP 1 DEMAND BRANCH 17,COIL:HEATING:WATER,COIL HEATING WATER 18,NODE 145,NODE 146,Water Nodes
 Component Set,27,BRANCH,PLANT LOOP 1 DEMAND BRANCH 18,COIL:HEATING:WATER,COIL HEATING WATER 19,NODE 150,NODE 151,Water Nodes
 Component Set,28,BRANCH,PLANT LOOP 1 DEMAND BRANCH 19,COIL:HEATING:WATER,COIL HEATING WATER 20,NODE 155,NODE 156,Water Nodes
 Component Set,29,BRANCH,PLANT LOOP 1 DEMAND BRANCH 20,COIL:HEATING:WATER,COIL HEATING WATER 21,NODE 160,NODE 161,Water Nodes
 Component Set,30,BRANCH,PLANT LOOP 1 DEMAND BRANCH 21,COIL:HEATING:WATER,COIL HEATING WATER 22,NODE 165,NODE 166,Water Nodes
 Component Set,31,BRANCH,PLANT LOOP 1 DEMAND BRANCH 22,COIL:HEATING:WATER,COIL HEATING WATER 23,NODE 170,NODE 171,Water Nodes
 Component Set,32,BRANCH,PLANT LOOP 1 DEMAND BRANCH 23,COIL:HEATING:WATER,COIL HEATING WATER 24,NODE 175,NODE 176,Water Nodes
 Component Set,33,BRANCH,PLANT LOOP 1 DEMAND BRANCH 24,COIL:HEATING:WATER,COIL HEATING WATER 25,NODE 180,NODE 181,Water Nodes
 Component Set,34,BRANCH,PLANT LOOP 1 DEMAND BRANCH 25,COIL:HEATING:WATER,COIL HEATING WATER 26,NODE 185,NODE 186,Water Nodes
 Component Set,35,BRANCH,PLANT LOOP 1 DEMAND BRANCH 26,COIL:HEATING:WATER,COIL HEATING WATER 27,NODE 190,NODE 191,Water Nodes
 Component Set,36,BRANCH,PLANT LOOP 1 DEMAND BRANCH 27,COIL:HEATING:WATER,COIL HEATING WATER 28,NODE 195,NODE 196,Water Nodes
 Component Set,37,BRANCH,PLANT LOOP 1 DEMAND BRANCH 28,COIL:HEATING:WATER,COIL HEATING WATER 29,NODE 200,NODE 201,Water Nodes
 Component Set,38,BRANCH,PLANT LOOP 1 DEMAND BRANCH 29,COIL:HEATING:WATER,COIL HEATING WATER 30,NODE 205,NODE 206,Water Nodes
 Component Set,39,BRANCH,PLANT LOOP 1 DEMAND BRANCH 30,COIL:HEATING:WATER,COIL HEATING WATER 31,NODE 210,NODE 211,Water Nodes
 Component Set,40,BRANCH,PLANT LOOP 1 DEMAND BRANCH 31,COIL:HEATING:WATER,COIL HEATING WATER 32,NODE 215,NODE 216,Water Nodes
 Component Set,41,BRANCH,PLANT LOOP 1 DEMAND BRANCH 32,COIL:HEATING:WATER,COIL HEATING WATER 33,NODE 220,NODE 221,Water Nodes
 Component Set,42,BRANCH,PLANT LOOP 1 DEMAND BRANCH 33,COIL:HEATING:WATER,COIL HEATING WATER 34,NODE 225,NODE 226,Water Nodes
 Component Set,43,BRANCH,PLANT LOOP 1 DEMAND BRANCH 34,COIL:HEATING:WATER,COIL HEATING WATER 35,NODE 230,NODE 231,Water Nodes
 Component Set,44,BRANCH,PLANT LOOP 1 DEMAND BRANCH 35,COIL:HEATING:WATER,COIL HEATING WATER 36,NODE 235,NODE 236,Water Nodes
 Component Set,45,BRANCH,PLANT LOOP 1 DEMAND BRANCH 36,COIL:HEATING:WATER,COIL HEATING WATER 37,NODE 240,NODE 241,Water Nodes
 Component Set,46,BRANCH,PLANT LOOP 1 DEMAND BRANCH 37,COIL:HEATING:WATER,COIL HEATING WATER 38,NODE 245,NODE 246,Water Nodes
 Component Set,47,BRANCH,PLANT LOOP 1 DEMAND BRANCH 38,COIL:HEATING:WATER,COIL HEATING WATER 39,NODE 250,NODE 251,Water Nodes
 Component Set,48,BRANCH,PLANT LOOP 1 DEMAND BRANCH 39,COIL:HEATING:WATER,COIL HEATING WATER 40,NODE 255,NODE 256,Water Nodes
 Component Set,49,BRANCH,PLANT LOOP 1 DEMAND BRANCH 40,COIL:HEATING:WATER,COIL HEATING WATER 41,NODE 260,NODE 261,Water Nodes
 Component Set,50,BRANCH,PLANT LOOP 1 DEMAND BRANCH 41,COIL:HEATING:WATER,COIL HEATING WATER 42,NODE 265,NODE 266,Water Nodes
 Component Set,51,BRANCH,PLANT LOOP 1 DEMAND BRANCH 42,COIL:HEATING:WATER,COIL HEATING WATER 43,NODE 270,NODE 271,Water Nodes
 Component Set,52,BRANCH,PLANT LOOP 1 DEMAND BRANCH 43,COIL:HEATING:WATER,COIL HEATING WATER 44,NODE 275,NODE 276,Water Nodes
 Component Set,53,BRANCH,PLANT LOOP 1 DEMAND BRANCH 44,COIL:HEATING:WATER,COIL HEATING WATER 45,NODE 280,NODE 281,Water Nodes
 Component Set,54,BRANCH,PLANT LOOP 1 DEMAND BRANCH 45,COIL:HEATING:WATER,COIL HEATING WATER 46,NODE 285,NODE 286,Water Nodes
 Component Set,55,BRANCH,PLANT LOOP 1 DEMAND BRANCH 46,COIL:HEATING:WATER,COIL HEATING WATER 47,NODE 290,NODE 291,Water Nodes
 Component Set,56,BRANCH,PLANT LOOP 1 DEMAND BYPASS BRANCH,PIPE:ADIABATIC,PLANT LOOP 1 DEMAND BYPASS PIPE,PLANT LOOP 1 DEMAND BYPASS PIPE INLET NODE,PLANT LOOP 1 DEMAND BYPASS PIPE OUTLET NODE,Pipe Nodes
 Component Set,57,BRANCH,PLANT LOOP 1 DEMAND OUTLET BRANCH,PIPE:ADIABATIC,PLANT LOOP 1 DEMAND OUTLET PIPE,PLANT LOOP 1 DEMAND OUTLET PIPE NODE,NODE 60,Pipe Nodes
 Component Set,58,ZONEHVAC:AIRDISTRIBUTIONUNIT,ZONEHVAC:AIRDISTRIBUTIONUNIT {BA618F10-793E-407D-8302-043F05F7DBD2},AIRTERMINAL:SINGLEDUCT:VAV:REHEAT,AIR TERMINAL SINGLE DUCT VAV REHEAT 2,NODE 69,NODE 50,Air Nodes
 Component Set,59,ZONEHVAC:AIRDISTRIBUTIONUNIT,ZONEHVAC:AIRDISTRIBUTIONUNIT {D36E6224-E156-4362-B5C7-24FEE9E09CCD},AIRTERMINAL:SINGLEDUCT:VAV:REHEAT,AIR TERMINAL SINGLE DUCT VAV REHEAT 3,NODE 74,NODE 72,Air Nodes
 Component Set,60,ZONEHVAC:AIRDISTRIBUTIONUNIT,ZONEHVAC:AIRDISTRIBUTIONUNIT {F49925C2-2188-42EB-9E8A-5DE8B527FCDD},AIRTERMINAL:SINGLEDUCT:VAV:REHEAT,AIR TERMINAL SINGLE DUCT VAV REHEAT 4,NODE 79,NODE 77,Air Nodes
 Component Set,61,ZONEHVAC:AIRDISTRIBUTIONUNIT,ZONEHVAC:AIRDISTRIBUTIONUNIT {B29A2451-8BD5-48F2-9483-C638685D4839},AIRTERMINAL:SINGLEDUCT:VAV:REHEAT,AIR TERMINAL SINGLE DUCT VAV REHEAT 5,NODE 84,NODE 82,Air Nodes
 Component Set,62,ZONEHVAC:AIRDISTRIBUTIONUNIT,ZONEHVAC:AIRDISTRIBUTIONUNIT {BB6A92B4-A914-449C-8757-515B3CE31BDA},AIRTERMINAL:SINGLEDUCT:VAV:REHEAT,AIR TERMINAL SINGLE DUCT VAV REHEAT 6,NODE 89,NODE 87,Air Nodes
 Component Set,63,ZONEHVAC:AIRDISTRIBUTIONUNIT,ZONEHVAC:AIRDISTRIBUTIONUNIT {A7A7C0C7-51A0-4804-A95D-15E95F913FAD},AIRTERMINAL:SINGLEDUCT:VAV:REHEAT,AIR TERMINAL SINGLE DUCT VAV REHEAT 7,NODE 94,NODE 92,Air Nodes
 Component Set,64,ZONEHVAC:AIRDISTRIBUTIONUNIT,ZONEHVAC:AIRDISTRIBUTIONUNIT {67D1756A-97B6-4F0F-B164-21AC557F5438},AIRTERMINAL:SINGLEDUCT:VAV:REHEAT,AIR TERMINAL SINGLE DUCT VAV REHEAT 8,NODE 99,NODE 97,Air Nodes
 Component Set,65,ZONEHVAC:AIRDISTRIBUTIONUNIT,ZONEHVAC:AIRDISTRIBUTIONUNIT {A7B88AB0-BD96-4AB7-B2E6-CE71CF68D824},AIRTERMINAL:SINGLEDUCT:VAV:REHEAT,AIR TERMINAL SINGLE DUCT VAV REHEAT 9,NODE 104,NODE 102,Air Nodes
 Component Set,66,ZONEHVAC:AIRDISTRIBUTIONUNIT,ZONEHVAC:AIRDISTRIBUTIONUNIT {F7331C94-3EC7-4C85-805D-88722CE4812C},AIRTERMINAL:SINGLEDUCT:VAV:REHEAT,AIR TERMINAL SINGLE DUCT VAV REHEAT 10,NODE 109,NODE 107,Air Nodes
 Component Set,67,ZONEHVAC:AIRDISTRIBUTIONUNIT,ZONEHVAC:AIRDISTRIBUTIONUNIT {674540C1-BD16-46E8-8E65-EDD9411F9CF0},AIRTERMINAL:SINGLEDUCT:VAV:REHEAT,AIR TERMINAL SINGLE DUCT VAV REHEAT 11,NODE 114,NODE 112,Air Nodes
 Component Set,68,ZONEHVAC:AIRDISTRIBUTIONUNIT,ZONEHVAC:AIRDISTRIBUTIONUNIT {2E9269A2-3EA1-48DC-947F-E6C96B9927AC},AIRTERMINAL:SINGLEDUCT:VAV:REHEAT,AIR TERMINAL SINGLE DUCT VAV REHEAT 12,NODE 119,NODE 117,Air Nodes
 Component Set,69,ZONEHVAC:AIRDISTRIBUTIONUNIT,ZONEHVAC:AIRDISTRIBUTIONUNIT {68056D0E-6D2A-4E94-8780-1E5ED34A60BC},AIRTERMINAL:SINGLEDUCT:VAV:REHEAT,AIR TERMINAL SINGLE DUCT VAV REHEAT 13,NODE 124,NODE 122,Air Nodes
 Component Set,70,ZONEHVAC:AIRDISTRIBUTIONUNIT,ZONEHVAC:AIRDISTRIBUTIONUNIT {81FDC1B2-C196-4259-8C72-A0DC6F26CA08},AIRTERMINAL:SINGLEDUCT:VAV:REHEAT,AIR TERMINAL SINGLE DUCT VAV REHEAT 14,NODE 129,NODE 127,Air Nodes
 Component Set,71,ZONEHVAC:AIRDISTRIBUTIONUNIT,ZONEHVAC:AIRDISTRIBUTIONUNIT {31491D36-0045-44E8-B755-B653E140A55E},AIRTERMINAL:SINGLEDUCT:VAV:REHEAT,AIR TERMINAL SINGLE DUCT VAV REHEAT 15,NODE 134,NODE 132,Air Nodes
 Component Set,72,ZONEHVAC:AIRDISTRIBUTIONUNIT,ZONEHVAC:AIRDISTRIBUTIONUNIT {95F5B7F5-F8B9-4042-B2F9-791F6114E6A4},AIRTERMINAL:SINGLEDUCT:VAV:REHEAT,AIR TERMINAL SINGLE DUCT VAV REHEAT 16,NODE 139,NODE 137,Air Nodes
 Component Set,73,ZONEHVAC:AIRDISTRIBUTIONUNIT,ZONEHVAC:AIRDISTRIBUTIONUNIT {885160B5-F312-48A5-9B5C-7F9E62F2747F},AIRTERMINAL:SINGLEDUCT:VAV:REHEAT,AIR TERMINAL SINGLE DUCT VAV REHEAT 17,NODE 144,NODE 142,Air Nodes
 Component Set,74,ZONEHVAC:AIRDISTRIBUTIONUNIT,ZONEHVAC:AIRDISTRIBUTIONUNIT {DC96FD82-E37E-4665-82F1-7E299D51A7A5},AIRTERMINAL:SINGLEDUCT:VAV:REHEAT,AIR TERMINAL SINGLE DUCT VAV REHEAT 18,NODE 149,NODE 147,Air Nodes
 Component Set,75,ZONEHVAC:AIRDISTRIBUTIONUNIT,ZONEHVAC:AIRDISTRIBUTIONUNIT {5FB1524B-7C81-498F-8B59-B7F8D23510FE},AIRTERMINAL:SINGLEDUCT:VAV:REHEAT,AIR TERMINAL SINGLE DUCT VAV REHEAT 19,NODE 154,NODE 152,Air Nodes
 Component Set,76,ZONEHVAC:AIRDISTRIBUTIONUNIT,ZONEHVAC:AIRDISTRIBUTIONUNIT {0C5C9016-BAA7-45C4-86F2-333C82028BD9},AIRTERMINAL:SINGLEDUCT:VAV:REHEAT,AIR TERMINAL SINGLE DUCT VAV REHEAT 20,NODE 159,NODE 157,Air Nodes
 Component Set,77,ZONEHVAC:AIRDISTRIBUTIONUNIT,ZONEHVAC:AIRDISTRIBUTIONUNIT {B3F1BA27-D5B6-42BF-9E1A-11A4CBC58A91},AIRTERMINAL:SINGLEDUCT:VAV:REHEAT,AIR TERMINAL SINGLE DUCT VAV REHEAT 21,NODE 164,NODE 162,Air Nodes
 Component Set,78,ZONEHVAC:AIRDISTRIBUTIONUNIT,ZONEHVAC:AIRDISTRIBUTIONUNIT {6EDAB11E-B6BF-4787-A179-323E798FDA49},AIRTERMINAL:SINGLEDUCT:VAV:REHEAT,AIR TERMINAL SINGLE DUCT VAV REHEAT 22,NODE 169,NODE 167,Air Nodes
 Component Set,79,ZONEHVAC:AIRDISTRIBUTIONUNIT,ZONEHVAC:AIRDISTRIBUTIONUNIT {E961F465-85D6-414E-AC89-2AA944173776},AIRTERMINAL:SINGLEDUCT:VAV:REHEAT,AIR TERMINAL SINGLE DUCT VAV REHEAT 23,NODE 174,NODE 172,Air Nodes
 Component Set,80,ZONEHVAC:AIRDISTRIBUTIONUNIT,ZONEHVAC:AIRDISTRIBUTIONUNIT {D865D111-DEB1-4507-B892-E90E8642B951},AIRTERMINAL:SINGLEDUCT:VAV:REHEAT,AIR TERMINAL SINGLE DUCT VAV REHEAT 24,NODE 179,NODE 177,Air Nodes
 Component Set,81,ZONEHVAC:AIRDISTRIBUTIONUNIT,ZONEHVAC:AIRDISTRIBUTIONUNIT {293E0A9E-E66C-482A-B09D-0C225C1921B1},AIRTERMINAL:SINGLEDUCT:VAV:REHEAT,AIR TERMINAL SINGLE DUCT VAV REHEAT 25,NODE 184,NODE 182,Air Nodes
 Component Set,82,ZONEHVAC:AIRDISTRIBUTIONUNIT,ZONEHVAC:AIRDISTRIBUTIONUNIT {531F7300-58ED-4055-9C76-88C39C5C5867},AIRTERMINAL:SINGLEDUCT:VAV:REHEAT,AIR TERMINAL SINGLE DUCT VAV REHEAT 26,NODE 189,NODE 187,Air Nodes
 Component Set,83,ZONEHVAC:AIRDISTRIBUTIONUNIT,ZONEHVAC:AIRDISTRIBUTIONUNIT {06AF199A-E7B1-4D89-95EE-2E42663B98D8},AIRTERMINAL:SINGLEDUCT:VAV:REHEAT,AIR TERMINAL SINGLE DUCT VAV REHEAT 27,NODE 194,NODE 192,Air Nodes
 Component Set,84,ZONEHVAC:AIRDISTRIBUTIONUNIT,ZONEHVAC:AIRDISTRIBUTIONUNIT {7D4B64F6-6497-44E2-89BE-753A80A9D4C7},AIRTERMINAL:SINGLEDUCT:VAV:REHEAT,AIR TERMINAL SINGLE DUCT VAV REHEAT 28,NODE 199,NODE 197,Air Nodes
 Component Set,85,ZONEHVAC:AIRDISTRIBUTIONUNIT,ZONEHVAC:AIRDISTRIBUTIONUNIT {D43BEF78-E438-412D-996E-A7C6C348C0DE},AIRTERMINAL:SINGLEDUCT:VAV:REHEAT,AIR TERMINAL SINGLE DUCT VAV REHEAT 29,NODE 204,NODE 202,Air Nodes
 Component Set,86,ZONEHVAC:AIRDISTRIBUTIONUNIT,ZONEHVAC:AIRDISTRIBUTIONUNIT {92ED2142-D9B0-41B5-AD85-B1A030FBC426},AIRTERMINAL:SINGLEDUCT:VAV:REHEAT,AIR TERMINAL SINGLE DUCT VAV REHEAT 30,NODE 209,NODE 207,Air Nodes
 Component Set,87,ZONEHVAC:AIRDISTRIBUTIONUNIT,ZONEHVAC:AIRDISTRIBUTIONUNIT {DF7E1F3C-F232-481F-A075-7F2357226DE9},AIRTERMINAL:SINGLEDUCT:VAV:REHEAT,AIR TERMINAL SINGLE DUCT VAV REHEAT 31,NODE 214,NODE 212,Air Nodes
 Component Set,88,ZONEHVAC:AIRDISTRIBUTIONUNIT,ZONEHVAC:AIRDISTRIBUTIONUNIT {DBEF6D53-0FCA-4985-BF6A-D2D750DC47A7},AIRTERMINAL:SINGLEDUCT:VAV:REHEAT,AIR TERMINAL SINGLE DUCT VAV REHEAT 32,NODE 219,NODE 217,Air Nodes
 Component Set,89,ZONEHVAC:AIRDISTRIBUTIONUNIT,ZONEHVAC:AIRDISTRIBUTIONUNIT {80344696-493F-4B29-A732-50382662098C},AIRTERMINAL:SINGLEDUCT:VAV:REHEAT,AIR TERMINAL SINGLE DUCT VAV REHEAT 33,NODE 224,NODE 222,Air Nodes
 Component Set,90,ZONEHVAC:AIRDISTRIBUTIONUNIT,ZONEHVAC:AIRDISTRIBUTIONUNIT {81377CFA-73CD-40C2-A910-EB4071234CB6},AIRTERMINAL:SINGLEDUCT:VAV:REHEAT,AIR TERMINAL SINGLE DUCT VAV REHEAT 34,NODE 229,NODE 227,Air Nodes
 Component Set,91,ZONEHVAC:AIRDISTRIBUTIONUNIT,ZONEHVAC:AIRDISTRIBUTIONUNIT {C7D63012-0388-4959-8828-5FB731CB2A22},AIRTERMINAL:SINGLEDUCT:VAV:REHEAT,AIR TERMINAL SINGLE DUCT VAV REHEAT 35,NODE 234,NODE 232,Air Nodes
 Component Set,92,ZONEHVAC:AIRDISTRIBUTIONUNIT,ZONEHVAC:AIRDISTRIBUTIONUNIT {4C45F93D-0669-4A59-9BC4-55AE5BE843DA},AIRTERMINAL:SINGLEDUCT:VAV:REHEAT,AIR TERMINAL SINGLE DUCT VAV REHEAT 36,NODE 239,NODE 237,Air Nodes
 Component Set,93,ZONEHVAC:AIRDISTRIBUTIONUNIT,ZONEHVAC:AIRDISTRIBUTIONUNIT {29154C38-505B-4ADD-8C17-7327A37A2686},AIRTERMINAL:SINGLEDUCT:VAV:REHEAT,AIR TERMINAL SINGLE DUCT VAV REHEAT 37,NODE 244,NODE 242,Air Nodes
 Component Set,94,ZONEHVAC:AIRDISTRIBUTIONUNIT,ZONEHVAC:AIRDISTRIBUTIONUNIT {0AC850ED-421A-40D4-8D6F-3600E97E6157},AIRTERMINAL:SINGLEDUCT:VAV:REHEAT,AIR TERMINAL SINGLE DUCT VAV REHEAT 38,NODE 249,NODE 247,Air Nodes
 Component Set,95,ZONEHVAC:AIRDISTRIBUTIONUNIT,ZONEHVAC:AIRDISTRIBUTIONUNIT {AD4B4CE1-BE11-4698-BCB6-ED14798AA2C2},AIRTERMINAL:SINGLEDUCT:VAV:REHEAT,AIR TERMINAL SINGLE DUCT VAV REHEAT 39,NODE 254,NODE 252,Air Nodes
 Component Set,96,ZONEHVAC:AIRDISTRIBUTIONUNIT,ZONEHVAC:AIRDISTRIBUTIONUNIT {BBB5E410-7661-403F-92B2-77390C34C5CA},AIRTERMINAL:SINGLEDUCT:VAV:REHEAT,AIR TERMINAL SINGLE DUCT VAV REHEAT 40,NODE 259,NODE 257,Air Nodes
 Component Set,97,ZONEHVAC:AIRDISTRIBUTIONUNIT,ZONEHVAC:AIRDISTRIBUTIONUNIT {EDC9872E-E7DF-4F1A-911C-66365D980AA2},AIRTERMINAL:SINGLEDUCT:VAV:REHEAT,AIR TERMINAL SINGLE DUCT VAV REHEAT 41,NODE 264,NODE 262,Air Nodes
 Component Set,98,ZONEHVAC:AIRDISTRIBUTIONUNIT,ZONEHVAC:AIRDISTRIBUTIONUNIT {C071C371-1697-4800-8696-6308A541790E},AIRTERMINAL:SINGLEDUCT:VAV:REHEAT,AIR TERMINAL SINGLE DUCT VAV REHEAT 42,NODE 269,NODE 267,Air Nodes
 Component Set,99,ZONEHVAC:AIRDISTRIBUTIONUNIT,ZONEHVAC:AIRDISTRIBUTIONUNIT {D8FD71C3-7C24-4C61-B7E1-5062C52F12D1},AIRTERMINAL:SINGLEDUCT:VAV:REHEAT,AIR TERMINAL SINGLE DUCT VAV REHEAT 43,NODE 274,NODE 272,Air Nodes
 Component Set,100,ZONEHVAC:AIRDISTRIBUTIONUNIT,ZONEHVAC:AIRDISTRIBUTIONUNIT {6EFBD9AF-D9E2-4C7F-BF2E-ECC7F99FD6C8},AIRTERMINAL:SINGLEDUCT:VAV:REHEAT,AIR TERMINAL SINGLE DUCT VAV REHEAT 44,NODE 279,NODE 277,Air Nodes
 Component Set,101,ZONEHVAC:AIRDISTRIBUTIONUNIT,ZONEHVAC:AIRDISTRIBUTIONUNIT {72FB64D3-BE84-4378-8011-B0D0AAA28432},AIRTERMINAL:SINGLEDUCT:VAV:REHEAT,AIR TERMINAL SINGLE DUCT VAV REHEAT 45,NODE 284,NODE 282,Air Nodes
 Component Set,102,ZONEHVAC:AIRDISTRIBUTIONUNIT,ZONEHVAC:AIRDISTRIBUTIONUNIT {E17E06E7-CB24-4D86-9D41-CD8D40401723},AIRTERMINAL:SINGLEDUCT:VAV:REHEAT,AIR TERMINAL SINGLE DUCT VAV REHEAT 46,NODE 289,NODE 287,Air Nodes
 Component Set,103,AIRTERMINAL:SINGLEDUCT:VAV:REHEAT,AIR TERMINAL SINGLE DUCT VAV REHEAT 2,COIL:HEATING:WATER,COIL HEATING WATER 3,AIR TERMINAL SINGLE DUCT VAV REHEAT 2 DAMPER OUTLET,NODE 50,Air Nodes
 Component Set,104,AIRTERMINAL:SINGLEDUCT:VAV:REHEAT,AIR TERMINAL SINGLE DUCT VAV REHEAT 3,COIL:HEATING:WATER,COIL HEATING WATER 4,AIR TERMINAL SINGLE DUCT VAV REHEAT 3 DAMPER OUTLET,NODE 72,Air Nodes
 Component Set,105,AIRTERMINAL:SINGLEDUCT:VAV:REHEAT,AIR TERMINAL SINGLE DUCT VAV REHEAT 4,COIL:HEATING:WATER,COIL HEATING WATER 5,AIR TERMINAL SINGLE DUCT VAV REHEAT 4 DAMPER OUTLET,NODE 77,Air Nodes
 Component Set,106,AIRTERMINAL:SINGLEDUCT:VAV:REHEAT,AIR TERMINAL SINGLE DUCT VAV REHEAT 5,COIL:HEATING:WATER,COIL HEATING WATER 6,AIR TERMINAL SINGLE DUCT VAV REHEAT 5 DAMPER OUTLET,NODE 82,Air Nodes
 Component Set,107,AIRTERMINAL:SINGLEDUCT:VAV:REHEAT,AIR TERMINAL SINGLE DUCT VAV REHEAT 6,COIL:HEATING:WATER,COIL HEATING WATER 7,AIR TERMINAL SINGLE DUCT VAV REHEAT 6 DAMPER OUTLET,NODE 87,Air Nodes
 Component Set,108,AIRTERMINAL:SINGLEDUCT:VAV:REHEAT,AIR TERMINAL SINGLE DUCT VAV REHEAT 7,COIL:HEATING:WATER,COIL HEATING WATER 8,AIR TERMINAL SINGLE DUCT VAV REHEAT 7 DAMPER OUTLET,NODE 92,Air Nodes
 Component Set,109,AIRTERMINAL:SINGLEDUCT:VAV:REHEAT,AIR TERMINAL SINGLE DUCT VAV REHEAT 8,COIL:HEATING:WATER,COIL HEATING WATER 9,AIR TERMINAL SINGLE DUCT VAV REHEAT 8 DAMPER OUTLET,NODE 97,Air Nodes
 Component Set,110,AIRTERMINAL:SINGLEDUCT:VAV:REHEAT,AIR TERMINAL SINGLE DUCT VAV REHEAT 9,COIL:HEATING:WATER,COIL HEATING WATER 10,AIR TERMINAL SINGLE DUCT VAV REHEAT 9 DAMPER OUTLET,NODE 102,Air Nodes
 Component Set,111,AIRTERMINAL:SINGLEDUCT:VAV:REHEAT,AIR TERMINAL SINGLE DUCT VAV REHEAT 10,COIL:HEATING:WATER,COIL HEATING WATER 11,AIR TERMINAL SINGLE DUCT VAV REHEAT 10 DAMPER OUTLET,NODE 107,Air Nodes
 Component Set,112,AIRTERMINAL:SINGLEDUCT:VAV:REHEAT,AIR TERMINAL SINGLE DUCT VAV REHEAT 11,COIL:HEATING:WATER,COIL HEATING WATER 12,AIR TERMINAL SINGLE DUCT VAV REHEAT 11 DAMPER OUTLET,NODE 112,Air Nodes
 Component Set,113,AIRTERMINAL:SINGLEDUCT:VAV:REHEAT,AIR TERMINAL SINGLE DUCT VAV REHEAT 12,COIL:HEATING:WATER,COIL HEATING WATER 13,AIR TERMINAL SINGLE DUCT VAV REHEAT 12 DAMPER OUTLET,NODE 117,Air Nodes
 Component Set,114,AIRTERMINAL:SINGLEDUCT:VAV:REHEAT,AIR TERMINAL SINGLE DUCT VAV REHEAT 13,COIL:HEATING:WATER,COIL HEATING WATER 14,AIR TERMINAL SINGLE DUCT VAV REHEAT 13 DAMPER OUTLET,NODE 122,Air Nodes
 Component Set,115,AIRTERMINAL:SINGLEDUCT:VAV:REHEAT,AIR TERMINAL SINGLE DUCT VAV REHEAT 14,COIL:HEATING:WATER,COIL HEATING WATER 15,AIR TERMINAL SINGLE DUCT VAV REHEAT 14 DAMPER OUTLET,NODE 127,Air Nodes
 Component Set,116,AIRTERMINAL:SINGLEDUCT:VAV:REHEAT,AIR TERMINAL SINGLE DUCT VAV REHEAT 15,COIL:HEATING:WATER,COIL HEATING WATER 16,AIR TERMINAL SINGLE DUCT VAV REHEAT 15 DAMPER OUTLET,NODE 132,Air Nodes
 Component Set,117,AIRTERMINAL:SINGLEDUCT:VAV:REHEAT,AIR TERMINAL SINGLE DUCT VAV REHEAT 16,COIL:HEATING:WATER,COIL HEATING WATER 17,AIR TERMINAL SINGLE DUCT VAV REHEAT 16 DAMPER OUTLET,NODE 137,Air Nodes
 Component Set,118,AIRTERMINAL:SINGLEDUCT:VAV:REHEAT,AIR TERMINAL SINGLE DUCT VAV REHEAT 17,COIL:HEATING:WATER,COIL HEATING WATER 18,AIR TERMINAL SINGLE DUCT VAV REHEAT 17 DAMPER OUTLET,NODE 142,Air Nodes
 Component Set,119,AIRTERMINAL:SINGLEDUCT:VAV:REHEAT,AIR TERMINAL SINGLE DUCT VAV REHEAT 18,COIL:HEATING:WATER,COIL HEATING WATER 19,AIR TERMINAL SINGLE DUCT VAV REHEAT 18 DAMPER OUTLET,NODE 147,Air Nodes
 Component Set,120,AIRTERMINAL:SINGLEDUCT:VAV:REHEAT,AIR TERMINAL SINGLE DUCT VAV REHEAT 19,COIL:HEATING:WATER,COIL HEATING WATER 20,AIR TERMINAL SINGLE DUCT VAV REHEAT 19 DAMPER OUTLET,NODE 152,Air Nodes
 Component Set,121,AIRTERMINAL:SINGLEDUCT:VAV:REHEAT,AIR TERMINAL SINGLE DUCT VAV REHEAT 20,COIL:HEATING:WATER,COIL HEATING WATER 21,AIR TERMINAL SINGLE DUCT VAV REHEAT 20 DAMPER OUTLET,NODE 157,Air Nodes
 Component Set,122,AIRTERMINAL:SINGLEDUCT:VAV:REHEAT,AIR TERMINAL SINGLE DUCT VAV REHEAT 21,COIL:HEATING:WATER,COIL HEATING WATER 22,AIR TERMINAL SINGLE DUCT VAV REHEAT 21 DAMPER OUTLET,NODE 162,Air Nodes
 Component Set,123,AIRTERMINAL:SINGLEDUCT:VAV:REHEAT,AIR TERMINAL SINGLE DUCT VAV REHEAT 22,COIL:HEATING:WATER,COIL HEATING WATER 23,AIR TERMINAL SINGLE DUCT VAV REHEAT 22 DAMPER OUTLET,NODE 167,Air Nodes
 Component Set,124,AIRTERMINAL:SINGLEDUCT:VAV:REHEAT,AIR TERMINAL SINGLE DUCT VAV REHEAT 23,COIL:HEATING:WATER,COIL HEATING WATER 24,AIR TERMINAL SINGLE DUCT VAV REHEAT 23 DAMPER OUTLET,NODE 172,Air Nodes
 Component Set,125,AIRTERMINAL:SINGLEDUCT:VAV:REHEAT,AIR TERMINAL SINGLE DUCT VAV REHEAT 24,COIL:HEATING:WATER,COIL HEATING WATER 25,AIR TERMINAL SINGLE DUCT VAV REHEAT 24 DAMPER OUTLET,NODE 177,Air Nodes
 Component Set,126,AIRTERMINAL:SINGLEDUCT:VAV:REHEAT,AIR TERMINAL SINGLE DUCT VAV REHEAT 25,COIL:HEATING:WATER,COIL HEATING WATER 26,AIR TERMINAL SINGLE DUCT VAV REHEAT 25 DAMPER OUTLET,NODE 182,Air Nodes
 Component Set,127,AIRTERMINAL:SINGLEDUCT:VAV:REHEAT,AIR TERMINAL SINGLE DUCT VAV REHEAT 26,COIL:HEATING:WATER,COIL HEATING WATER 27,AIR TERMINAL SINGLE DUCT VAV REHEAT 26 DAMPER OUTLET,NODE 187,Air Nodes
 Component Set,128,AIRTERMINAL:SINGLEDUCT:VAV:REHEAT,AIR TERMINAL SINGLE DUCT VAV REHEAT 27,COIL:HEATING:WATER,COIL HEATING WATER 28,AIR TERMINAL SINGLE DUCT VAV REHEAT 27 DAMPER OUTLET,NODE 192,Air Nodes
 Component Set,129,AIRTERMINAL:SINGLEDUCT:VAV:REHEAT,AIR TERMINAL SINGLE DUCT VAV REHEAT 28,COIL:HEATING:WATER,COIL HEATING WATER 29,AIR TERMINAL SINGLE DUCT VAV REHEAT 28 DAMPER OUTLET,NODE 197,Air Nodes
 Component Set,130,AIRTERMINAL:SINGLEDUCT:VAV:REHEAT,AIR TERMINAL SINGLE DUCT VAV REHEAT 29,COIL:HEATING:WATER,COIL HEATING WATER 30,AIR TERMINAL SINGLE DUCT VAV REHEAT 29 DAMPER OUTLET,NODE 202,Air Nodes
 Component Set,131,AIRTERMINAL:SINGLEDUCT:VAV:REHEAT,AIR TERMINAL SINGLE DUCT VAV REHEAT 30,COIL:HEATING:WATER,COIL HEATING WATER 31,AIR TERMINAL SINGLE DUCT VAV REHEAT 30 DAMPER OUTLET,NODE 207,Air Nodes
 Component Set,132,AIRTERMINAL:SINGLEDUCT:VAV:REHEAT,AIR TERMINAL SINGLE DUCT VAV REHEAT 31,COIL:HEATING:WATER,COIL HEATING WATER 32,AIR TERMINAL SINGLE DUCT VAV REHEAT 31 DAMPER OUTLET,NODE 212,Air Nodes
 Component Set,133,AIRTERMINAL:SINGLEDUCT:VAV:REHEAT,AIR TERMINAL SINGLE DUCT VAV REHEAT 32,COIL:HEATING:WATER,COIL HEATING WATER 33,AIR TERMINAL SINGLE DUCT VAV REHEAT 32 DAMPER OUTLET,NODE 217,Air Nodes
 Component Set,134,AIRTERMINAL:SINGLEDUCT:VAV:REHEAT,AIR TERMINAL SINGLE DUCT VAV REHEAT 33,COIL:HEATING:WATER,COIL HEATING WATER 34,AIR TERMINAL SINGLE DUCT VAV REHEAT 33 DAMPER OUTLET,NODE 222,Air Nodes
 Component Set,135,AIRTERMINAL:SINGLEDUCT:VAV:REHEAT,AIR TERMINAL SINGLE DUCT VAV REHEAT 34,COIL:HEATING:WATER,COIL HEATING WATER 35,AIR TERMINAL SINGLE DUCT VAV REHEAT 34 DAMPER OUTLET,NODE 227,Air Nodes
 Component Set,136,AIRTERMINAL:SINGLEDUCT:VAV:REHEAT,AIR TERMINAL SINGLE DUCT VAV REHEAT 35,COIL:HEATING:WATER,COIL HEATING WATER 36,AIR TERMINAL SINGLE DUCT VAV REHEAT 35 DAMPER OUTLET,NODE 232,Air Nodes
 Component Set,137,AIRTERMINAL:SINGLEDUCT:VAV:REHEAT,AIR TERMINAL SINGLE DUCT VAV REHEAT 36,COIL:HEATING:WATER,COIL HEATING WATER 37,AIR TERMINAL SINGLE DUCT VAV REHEAT 36 DAMPER OUTLET,NODE 237,Air Nodes
 Component Set,138,AIRTERMINAL:SINGLEDUCT:VAV:REHEAT,AIR TERMINAL SINGLE DUCT VAV REHEAT 37,COIL:HEATING:WATER,COIL HEATING WATER 38,AIR TERMINAL SINGLE DUCT VAV REHEAT 37 DAMPER OUTLET,NODE 242,Air Nodes
 Component Set,139,AIRTERMINAL:SINGLEDUCT:VAV:REHEAT,AIR TERMINAL SINGLE DUCT VAV REHEAT 38,COIL:HEATING:WATER,COIL HEATING WATER 39,AIR TERMINAL SINGLE DUCT VAV REHEAT 38 DAMPER OUTLET,NODE 247,Air Nodes
 Component Set,140,AIRTERMINAL:SINGLEDUCT:VAV:REHEAT,AIR TERMINAL SINGLE DUCT VAV REHEAT 39,COIL:HEATING:WATER,COIL HEATING WATER 40,AIR TERMINAL SINGLE DUCT VAV REHEAT 39 DAMPER OUTLET,NODE 252,Air Nodes
 Component Set,141,AIRTERMINAL:SINGLEDUCT:VAV:REHEAT,AIR TERMINAL SINGLE DUCT VAV REHEAT 40,COIL:HEATING:WATER,COIL HEATING WATER 41,AIR TERMINAL SINGLE DUCT VAV REHEAT 40 DAMPER OUTLET,NODE 257,Air Nodes
 Component Set,142,AIRTERMINAL:SINGLEDUCT:VAV:REHEAT,AIR TERMINAL SINGLE DUCT VAV REHEAT 41,COIL:HEATING:WATER,COIL HEATING WATER 42,AIR TERMINAL SINGLE DUCT VAV REHEAT 41 DAMPER OUTLET,NODE 262,Air Nodes
 Component Set,143,AIRTERMINAL:SINGLEDUCT:VAV:REHEAT,AIR TERMINAL SINGLE DUCT VAV REHEAT 42,COIL:HEATING:WATER,COIL HEATING WATER 43,AIR TERMINAL SINGLE DUCT VAV REHEAT 42 DAMPER OUTLET,NODE 267,Air Nodes
 Component Set,144,AIRTERMINAL:SINGLEDUCT:VAV:REHEAT,AIR TERMINAL SINGLE DUCT VAV REHEAT 43,COIL:HEATING:WATER,COIL HEATING WATER 44,AIR TERMINAL SINGLE DUCT VAV REHEAT 43 DAMPER OUTLET,NODE 272,Air Nodes
 Component Set,145,AIRTERMINAL:SINGLEDUCT:VAV:REHEAT,AIR TERMINAL SINGLE DUCT VAV REHEAT 44,COIL:HEATING:WATER,COIL HEATING WATER 45,AIR TERMINAL SINGLE DUCT VAV REHEAT 44 DAMPER OUTLET,NODE 277,Air Nodes
 Component Set,146,AIRTERMINAL:SINGLEDUCT:VAV:REHEAT,AIR TERMINAL SINGLE DUCT VAV REHEAT 45,COIL:HEATING:WATER,COIL HEATING WATER 46,AIR TERMINAL SINGLE DUCT VAV REHEAT 45 DAMPER OUTLET,NODE 282,Air Nodes
 Component Set,147,AIRTERMINAL:SINGLEDUCT:VAV:REHEAT,AIR TERMINAL SINGLE DUCT VAV REHEAT 46,COIL:HEATING:WATER,COIL HEATING WATER 47,AIR TERMINAL SINGLE DUCT VAV REHEAT 46 DAMPER OUTLET,NODE 287,Air Nodes
 Component Set,148,AIRLOOPHVAC:OUTDOORAIRSYSTEM,AIR LOOP HVAC OUTDOOR AIR SYSTEM 1,OUTDOORAIR:MIXER,OUTDOORAIR:MIXER {B964C694-5D52-42E6-B094-3C6D52052C05},NODE 51,NODE 53,Air Nodes
 Component Set,149,COILSYSTEM:COOLING:DX,COIL COOLING DX TWO SPEED 1 COILSYSTEM,COIL:COOLING:DX:TWOSPEED,COIL COOLING DX TWO SPEED 1,NODE 53,NODE 54,Air Nodes
! ===============================================================
! <# Plant Loops>,<Number of Plant Loops>
 #Plant Loops,1
! <Plant Loop>,<Plant Loop Name>,<Loop Type>,<Inlet Node Name>,<Outlet Node Name>,<Branch List>,<Connector List>
! <Plant Loop Connector>,<Connector Type>,<Connector Name>,<Loop Name>,<Loop Type>,<Number of Inlets/Outlets>
! <Plant Loop Connector Branches>,<Connector Node Count>,<Connector Type>,<Connector Name>,<Inlet Branch>,<Outlet Branch>,<Loop Name>,<Loop Type>
! <Plant Loop Connector Nodes>,<Connector Node Count>,<Connector Type>,<Connector Name>,<Inlet Node>,<Outlet Node>,<Loop Name>,<Loop Type>
! <Plant Loop Supply Connection>,<Plant Loop Name>,<Supply Side Outlet Node Name>,<Demand Side Inlet Node Name>
! <Plant Loop Return Connection>,<Plant Loop Name>,<Demand Side Outlet Node Name>,<Supply Side Inlet Node Name>
 Plant Loop,PLANT LOOP 1,Demand,NODE 59,NODE 60,PLANT LOOP 1 DEMAND BRANCHES,PLANT LOOP 1 DEMAND CONNECTOR LIST
   Plant Loop Connector,Splitter,PLANT LOOP 1 DEMAND SPLITTER,PLANT LOOP 1,Demand,47
     Plant Loop Connector Branches,1,Splitter,PLANT LOOP 1 DEMAND SPLITTER,PLANT LOOP 1 DEMAND INLET BRANCH,PLANT LOOP 1 DEMAND BRANCH 1,PLANT LOOP 1,Demand
     Plant Loop Connector Nodes,   1,Splitter,PLANT LOOP 1 DEMAND SPLITTER,PLANT LOOP 1 DEMAND INLET PIPE NODE,NODE 61,PLANT LOOP 1,Demand
     Plant Loop Connector Branches,2,Splitter,PLANT LOOP 1 DEMAND SPLITTER,PLANT LOOP 1 DEMAND INLET BRANCH,PLANT LOOP 1 DEMAND BRANCH 2,PLANT LOOP 1,Demand
     Plant Loop Connector Nodes,   2,Splitter,PLANT LOOP 1 DEMAND SPLITTER,PLANT LOOP 1 DEMAND INLET PIPE NODE,NODE 70,PLANT LOOP 1,Demand
     Plant Loop Connector Branches,3,Splitter,PLANT LOOP 1 DEMAND SPLITTER,PLANT LOOP 1 DEMAND INLET BRANCH,PLANT LOOP 1 DEMAND BRANCH 3,PLANT LOOP 1,Demand
     Plant Loop Connector Nodes,   3,Splitter,PLANT LOOP 1 DEMAND SPLITTER,PLANT LOOP 1 DEMAND INLET PIPE NODE,NODE 75,PLANT LOOP 1,Demand
     Plant Loop Connector Branches,4,Splitter,PLANT LOOP 1 DEMAND SPLITTER,PLANT LOOP 1 DEMAND INLET BRANCH,PLANT LOOP 1 DEMAND BRANCH 4,PLANT LOOP 1,Demand
     Plant Loop Connector Nodes,   4,Splitter,PLANT LOOP 1 DEMAND SPLITTER,PLANT LOOP 1 DEMAND INLET PIPE NODE,NODE 80,PLANT LOOP 1,Demand
     Plant Loop Connector Branches,5,Splitter,PLANT LOOP 1 DEMAND SPLITTER,PLANT LOOP 1 DEMAND INLET BRANCH,PLANT LOOP 1 DEMAND BRANCH 5,PLANT LOOP 1,Demand
     Plant Loop Connector Nodes,   5,Splitter,PLANT LOOP 1 DEMAND SPLITTER,PLANT LOOP 1 DEMAND INLET PIPE NODE,NODE 85,PLANT LOOP 1,Demand
     Plant Loop Connector Branches,6,Splitter,PLANT LOOP 1 DEMAND SPLITTER,PLANT LOOP 1 DEMAND INLET BRANCH,PLANT LOOP 1 DEMAND BRANCH 6,PLANT LOOP 1,Demand
     Plant Loop Connector Nodes,   6,Splitter,PLANT LOOP 1 DEMAND SPLITTER,PLANT LOOP 1 DEMAND INLET PIPE NODE,NODE 90,PLANT LOOP 1,Demand
     Plant Loop Connector Branches,7,Splitter,PLANT LOOP 1 DEMAND SPLITTER,PLANT LOOP 1 DEMAND INLET BRANCH,PLANT LOOP 1 DEMAND BRANCH 7,PLANT LOOP 1,Demand
     Plant Loop Connector Nodes,   7,Splitter,PLANT LOOP 1 DEMAND SPLITTER,PLANT LOOP 1 DEMAND INLET PIPE NODE,NODE 95,PLANT LOOP 1,Demand
     Plant Loop Connector Branches,8,Splitter,PLANT LOOP 1 DEMAND SPLITTER,PLANT LOOP 1 DEMAND INLET BRANCH,PLANT LOOP 1 DEMAND BRANCH 8,PLANT LOOP 1,Demand
     Plant Loop Connector Nodes,   8,Splitter,PLANT LOOP 1 DEMAND SPLITTER,PLANT LOOP 1 DEMAND INLET PIPE NODE,NODE 100,PLANT LOOP 1,Demand
     Plant Loop Connector Branches,9,Splitter,PLANT LOOP 1 DEMAND SPLITTER,PLANT LOOP 1 DEMAND INLET BRANCH,PLANT LOOP 1 DEMAND BRANCH 9,PLANT LOOP 1,Demand
     Plant Loop Connector Nodes,   9,Splitter,PLANT LOOP 1 DEMAND SPLITTER,PLANT LOOP 1 DEMAND INLET PIPE NODE,NODE 105,PLANT LOOP 1,Demand
     Plant Loop Connector Branches,10,Splitter,PLANT LOOP 1 DEMAND SPLITTER,PLANT LOOP 1 DEMAND INLET BRANCH,PLANT LOOP 1 DEMAND BRANCH 10,PLANT LOOP 1,Demand
     Plant Loop Connector Nodes,   10,Splitter,PLANT LOOP 1 DEMAND SPLITTER,PLANT LOOP 1 DEMAND INLET PIPE NODE,NODE 110,PLANT LOOP 1,Demand
     Plant Loop Connector Branches,11,Splitter,PLANT LOOP 1 DEMAND SPLITTER,PLANT LOOP 1 DEMAND INLET BRANCH,PLANT LOOP 1 DEMAND BRANCH 11,PLANT LOOP 1,Demand
     Plant Loop Connector Nodes,   11,Splitter,PLANT LOOP 1 DEMAND SPLITTER,PLANT LOOP 1 DEMAND INLET PIPE NODE,NODE 115,PLANT LOOP 1,Demand
     Plant Loop Connector Branches,12,Splitter,PLANT LOOP 1 DEMAND SPLITTER,PLANT LOOP 1 DEMAND INLET BRANCH,PLANT LOOP 1 DEMAND BRANCH 12,PLANT LOOP 1,Demand
     Plant Loop Connector Nodes,   12,Splitter,PLANT LOOP 1 DEMAND SPLITTER,PLANT LOOP 1 DEMAND INLET PIPE NODE,NODE 120,PLANT LOOP 1,Demand
     Plant Loop Connector Branches,13,Splitter,PLANT LOOP 1 DEMAND SPLITTER,PLANT LOOP 1 DEMAND INLET BRANCH,PLANT LOOP 1 DEMAND BRANCH 13,PLANT LOOP 1,Demand
     Plant Loop Connector Nodes,   13,Splitter,PLANT LOOP 1 DEMAND SPLITTER,PLANT LOOP 1 DEMAND INLET PIPE NODE,NODE 125,PLANT LOOP 1,Demand
     Plant Loop Connector Branches,14,Splitter,PLANT LOOP 1 DEMAND SPLITTER,PLANT LOOP 1 DEMAND INLET BRANCH,PLANT LOOP 1 DEMAND BRANCH 14,PLANT LOOP 1,Demand
     Plant Loop Connector Nodes,   14,Splitter,PLANT LOOP 1 DEMAND SPLITTER,PLANT LOOP 1 DEMAND INLET PIPE NODE,NODE 130,PLANT LOOP 1,Demand
     Plant Loop Connector Branches,15,Splitter,PLANT LOOP 1 DEMAND SPLITTER,PLANT LOOP 1 DEMAND INLET BRANCH,PLANT LOOP 1 DEMAND BRANCH 15,PLANT LOOP 1,Demand
     Plant Loop Connector Nodes,   15,Splitter,PLANT LOOP 1 DEMAND SPLITTER,PLANT LOOP 1 DEMAND INLET PIPE NODE,NODE 135,PLANT LOOP 1,Demand
     Plant Loop Connector Branches,16,Splitter,PLANT LOOP 1 DEMAND SPLITTER,PLANT LOOP 1 DEMAND INLET BRANCH,PLANT LOOP 1 DEMAND BRANCH 16,PLANT LOOP 1,Demand
     Plant Loop Connector Nodes,   16,Splitter,PLANT LOOP 1 DEMAND SPLITTER,PLANT LOOP 1 DEMAND INLET PIPE NODE,NODE 140,PLANT LOOP 1,Demand
     Plant Loop Connector Branches,17,Splitter,PLANT LOOP 1 DEMAND SPLITTER,PLANT LOOP 1 DEMAND INLET BRANCH,PLANT LOOP 1 DEMAND BRANCH 17,PLANT LOOP 1,Demand
     Plant Loop Connector Nodes,   17,Splitter,PLANT LOOP 1 DEMAND SPLITTER,PLANT LOOP 1 DEMAND INLET PIPE NODE,NODE 145,PLANT LOOP 1,Demand
     Plant Loop Connector Branches,18,Splitter,PLANT LOOP 1 DEMAND SPLITTER,PLANT LOOP 1 DEMAND INLET BRANCH,PLANT LOOP 1 DEMAND BRANCH 18,PLANT LOOP 1,Demand
     Plant Loop Connector Nodes,   18,Splitter,PLANT LOOP 1 DEMAND SPLITTER,PLANT LOOP 1 DEMAND INLET PIPE NODE,NODE 150,PLANT LOOP 1,Demand
     Plant Loop Connector Branches,19,Splitter,PLANT LOOP 1 DEMAND SPLITTER,PLANT LOOP 1 DEMAND INLET BRANCH,PLANT LOOP 1 DEMAND BRANCH 19,PLANT LOOP 1,Demand
     Plant Loop Connector Nodes,   19,Splitter,PLANT LOOP 1 DEMAND SPLITTER,PLANT LOOP 1 DEMAND INLET PIPE NODE,NODE 155,PLANT LOOP 1,Demand
     Plant Loop Connector Branches,20,Splitter,PLANT LOOP 1 DEMAND SPLITTER,PLANT LOOP 1 DEMAND INLET BRANCH,PLANT LOOP 1 DEMAND BRANCH 20,PLANT LOOP 1,Demand
     Plant Loop Connector Nodes,   20,Splitter,PLANT LOOP 1 DEMAND SPLITTER,PLANT LOOP 1 DEMAND INLET PIPE NODE,NODE 160,PLANT LOOP 1,Demand
     Plant Loop Connector Branches,21,Splitter,PLANT LOOP 1 DEMAND SPLITTER,PLANT LOOP 1 DEMAND INLET BRANCH,PLANT LOOP 1 DEMAND BRANCH 21,PLANT LOOP 1,Demand
     Plant Loop Connector Nodes,   21,Splitter,PLANT LOOP 1 DEMAND SPLITTER,PLANT LOOP 1 DEMAND INLET PIPE NODE,NODE 165,PLANT LOOP 1,Demand
     Plant Loop Connector Branches,22,Splitter,PLANT LOOP 1 DEMAND SPLITTER,PLANT LOOP 1 DEMAND INLET BRANCH,PLANT LOOP 1 DEMAND BRANCH 22,PLANT LOOP 1,Demand
     Plant Loop Connector Nodes,   22,Splitter,PLANT LOOP 1 DEMAND SPLITTER,PLANT LOOP 1 DEMAND INLET PIPE NODE,NODE 170,PLANT LOOP 1,Demand
     Plant Loop Connector Branches,23,Splitter,PLANT LOOP 1 DEMAND SPLITTER,PLANT LOOP 1 DEMAND INLET BRANCH,PLANT LOOP 1 DEMAND BRANCH 23,PLANT LOOP 1,Demand
     Plant Loop Connector Nodes,   23,Splitter,PLANT LOOP 1 DEMAND SPLITTER,PLANT LOOP 1 DEMAND INLET PIPE NODE,NODE 175,PLANT LOOP 1,Demand
     Plant Loop Connector Branches,24,Splitter,PLANT LOOP 1 DEMAND SPLITTER,PLANT LOOP 1 DEMAND INLET BRANCH,PLANT LOOP 1 DEMAND BRANCH 24,PLANT LOOP 1,Demand
     Plant Loop Connector Nodes,   24,Splitter,PLANT LOOP 1 DEMAND SPLITTER,PLANT LOOP 1 DEMAND INLET PIPE NODE,NODE 180,PLANT LOOP 1,Demand
     Plant Loop Connector Branches,25,Splitter,PLANT LOOP 1 DEMAND SPLITTER,PLANT LOOP 1 DEMAND INLET BRANCH,PLANT LOOP 1 DEMAND BRANCH 25,PLANT LOOP 1,Demand
     Plant Loop Connector Nodes,   25,Splitter,PLANT LOOP 1 DEMAND SPLITTER,PLANT LOOP 1 DEMAND INLET PIPE NODE,NODE 185,PLANT LOOP 1,Demand
     Plant Loop Connector Branches,26,Splitter,PLANT LOOP 1 DEMAND SPLITTER,PLANT LOOP 1 DEMAND INLET BRANCH,PLANT LOOP 1 DEMAND BRANCH 26,PLANT LOOP 1,Demand
     Plant Loop Connector Nodes,   26,Splitter,PLANT LOOP 1 DEMAND SPLITTER,PLANT LOOP 1 DEMAND INLET PIPE NODE,NODE 190,PLANT LOOP 1,Demand
     Plant Loop Connector Branches,27,Splitter,PLANT LOOP 1 DEMAND SPLITTER,PLANT LOOP 1 DEMAND INLET BRANCH,PLANT LOOP 1 DEMAND BRANCH 27,PLANT LOOP 1,Demand
     Plant Loop Connector Nodes,   27,Splitter,PLANT LOOP 1 DEMAND SPLITTER,PLANT LOOP 1 DEMAND INLET PIPE NODE,NODE 195,PLANT LOOP 1,Demand
     Plant Loop Connector Branches,28,Splitter,PLANT LOOP 1 DEMAND SPLITTER,PLANT LOOP 1 DEMAND INLET BRANCH,PLANT LOOP 1 DEMAND BRANCH 28,PLANT LOOP 1,Demand
     Plant Loop Connector Nodes,   28,Splitter,PLANT LOOP 1 DEMAND SPLITTER,PLANT LOOP 1 DEMAND INLET PIPE NODE,NODE 200,PLANT LOOP 1,Demand
     Plant Loop Connector Branches,29,Splitter,PLANT LOOP 1 DEMAND SPLITTER,PLANT LOOP 1 DEMAND INLET BRANCH,PLANT LOOP 1 DEMAND BRANCH 29,PLANT LOOP 1,Demand
     Plant Loop Connector Nodes,   29,Splitter,PLANT LOOP 1 DEMAND SPLITTER,PLANT LOOP 1 DEMAND INLET PIPE NODE,NODE 205,PLANT LOOP 1,Demand
     Plant Loop Connector Branches,30,Splitter,PLANT LOOP 1 DEMAND SPLITTER,PLANT LOOP 1 DEMAND INLET BRANCH,PLANT LOOP 1 DEMAND BRANCH 30,PLANT LOOP 1,Demand
     Plant Loop Connector Nodes,   30,Splitter,PLANT LOOP 1 DEMAND SPLITTER,PLANT LOOP 1 DEMAND INLET PIPE NODE,NODE 210,PLANT LOOP 1,Demand
     Plant Loop Connector Branches,31,Splitter,PLANT LOOP 1 DEMAND SPLITTER,PLANT LOOP 1 DEMAND INLET BRANCH,PLANT LOOP 1 DEMAND BRANCH 31,PLANT LOOP 1,Demand
     Plant Loop Connector Nodes,   31,Splitter,PLANT LOOP 1 DEMAND SPLITTER,PLANT LOOP 1 DEMAND INLET PIPE NODE,NODE 215,PLANT LOOP 1,Demand
     Plant Loop Connector Branches,32,Splitter,PLANT LOOP 1 DEMAND SPLITTER,PLANT LOOP 1 DEMAND INLET BRANCH,PLANT LOOP 1 DEMAND BRANCH 32,PLANT LOOP 1,Demand
     Plant Loop Connector Nodes,   32,Splitter,PLANT LOOP 1 DEMAND SPLITTER,PLANT LOOP 1 DEMAND INLET PIPE NODE,NODE 220,PLANT LOOP 1,Demand
     Plant Loop Connector Branches,33,Splitter,PLANT LOOP 1 DEMAND SPLITTER,PLANT LOOP 1 DEMAND INLET BRANCH,PLANT LOOP 1 DEMAND BRANCH 33,PLANT LOOP 1,Demand
     Plant Loop Connector Nodes,   33,Splitter,PLANT LOOP 1 DEMAND SPLITTER,PLANT LOOP 1 DEMAND INLET PIPE NODE,NODE 225,PLANT LOOP 1,Demand
     Plant Loop Connector Branches,34,Splitter,PLANT LOOP 1 DEMAND SPLITTER,PLANT LOOP 1 DEMAND INLET BRANCH,PLANT LOOP 1 DEMAND BRANCH 34,PLANT LOOP 1,Demand
     Plant Loop Connector Nodes,   34,Splitter,PLANT LOOP 1 DEMAND SPLITTER,PLANT LOOP 1 DEMAND INLET PIPE NODE,NODE 230,PLANT LOOP 1,Demand
     Plant Loop Connector Branches,35,Splitter,PLANT LOOP 1 DEMAND SPLITTER,PLANT LOOP 1 DEMAND INLET BRANCH,PLANT LOOP 1 DEMAND BRANCH 35,PLANT LOOP 1,Demand
     Plant Loop Connector Nodes,   35,Splitter,PLANT LOOP 1 DEMAND SPLITTER,PLANT LOOP 1 DEMAND INLET PIPE NODE,NODE 235,PLANT LOOP 1,Demand
     Plant Loop Connector Branches,36,Splitter,PLANT LOOP 1 DEMAND SPLITTER,PLANT LOOP 1 DEMAND INLET BRANCH,PLANT LOOP 1 DEMAND BRANCH 36,PLANT LOOP 1,Demand
     Plant Loop Connector Nodes,   36,Splitter,PLANT LOOP 1 DEMAND SPLITTER,PLANT LOOP 1 DEMAND INLET PIPE NODE,NODE 240,PLANT LOOP 1,Demand
     Plant Loop Connector Branches,37,Splitter,PLANT LOOP 1 DEMAND SPLITTER,PLANT LOOP 1 DEMAND INLET BRANCH,PLANT LOOP 1 DEMAND BRANCH 37,PLANT LOOP 1,Demand
     Plant Loop Connector Nodes,   37,Splitter,PLANT LOOP 1 DEMAND SPLITTER,PLANT LOOP 1 DEMAND INLET PIPE NODE,NODE 245,PLANT LOOP 1,Demand
     Plant Loop Connector Branches,38,Splitter,PLANT LOOP 1 DEMAND SPLITTER,PLANT LOOP 1 DEMAND INLET BRANCH,PLANT LOOP 1 DEMAND BRANCH 38,PLANT LOOP 1,Demand
     Plant Loop Connector Nodes,   38,Splitter,PLANT LOOP 1 DEMAND SPLITTER,PLANT LOOP 1 DEMAND INLET PIPE NODE,NODE 250,PLANT LOOP 1,Demand
     Plant Loop Connector Branches,39,Splitter,PLANT LOOP 1 DEMAND SPLITTER,PLANT LOOP 1 DEMAND INLET BRANCH,PLANT LOOP 1 DEMAND BRANCH 39,PLANT LOOP 1,Demand
     Plant Loop Connector Nodes,   39,Splitter,PLANT LOOP 1 DEMAND SPLITTER,PLANT LOOP 1 DEMAND INLET PIPE NODE,NODE 255,PLANT LOOP 1,Demand
     Plant Loop Connector Branches,40,Splitter,PLANT LOOP 1 DEMAND SPLITTER,PLANT LOOP 1 DEMAND INLET BRANCH,PLANT LOOP 1 DEMAND BRANCH 40,PLANT LOOP 1,Demand
     Plant Loop Connector Nodes,   40,Splitter,PLANT LOOP 1 DEMAND SPLITTER,PLANT LOOP 1 DEMAND INLET PIPE NODE,NODE 260,PLANT LOOP 1,Demand
     Plant Loop Connector Branches,41,Splitter,PLANT LOOP 1 DEMAND SPLITTER,PLANT LOOP 1 DEMAND INLET BRANCH,PLANT LOOP 1 DEMAND BRANCH 41,PLANT LOOP 1,Demand
     Plant Loop Connector Nodes,   41,Splitter,PLANT LOOP 1 DEMAND SPLITTER,PLANT LOOP 1 DEMAND INLET PIPE NODE,NODE 265,PLANT LOOP 1,Demand
     Plant Loop Connector Branches,42,Splitter,PLANT LOOP 1 DEMAND SPLITTER,PLANT LOOP 1 DEMAND INLET BRANCH,PLANT LOOP 1 DEMAND BRANCH 42,PLANT LOOP 1,Demand
     Plant Loop Connector Nodes,   42,Splitter,PLANT LOOP 1 DEMAND SPLITTER,PLANT LOOP 1 DEMAND INLET PIPE NODE,NODE 270,PLANT LOOP 1,Demand
     Plant Loop Connector Branches,43,Splitter,PLANT LOOP 1 DEMAND SPLITTER,PLANT LOOP 1 DEMAND INLET BRANCH,PLANT LOOP 1 DEMAND BRANCH 43,PLANT LOOP 1,Demand
     Plant Loop Connector Nodes,   43,Splitter,PLANT LOOP 1 DEMAND SPLITTER,PLANT LOOP 1 DEMAND INLET PIPE NODE,NODE 275,PLANT LOOP 1,Demand
     Plant Loop Connector Branches,44,Splitter,PLANT LOOP 1 DEMAND SPLITTER,PLANT LOOP 1 DEMAND INLET BRANCH,PLANT LOOP 1 DEMAND BRANCH 44,PLANT LOOP 1,Demand
     Plant Loop Connector Nodes,   44,Splitter,PLANT LOOP 1 DEMAND SPLITTER,PLANT LOOP 1 DEMAND INLET PIPE NODE,NODE 280,PLANT LOOP 1,Demand
     Plant Loop Connector Branches,45,Splitter,PLANT LOOP 1 DEMAND SPLITTER,PLANT LOOP 1 DEMAND INLET BRANCH,PLANT LOOP 1 DEMAND BRANCH 45,PLANT LOOP 1,Demand
     Plant Loop Connector Nodes,   45,Splitter,PLANT LOOP 1 DEMAND SPLITTER,PLANT LOOP 1 DEMAND INLET PIPE NODE,NODE 285,PLANT LOOP 1,Demand
     Plant Loop Connector Branches,46,Splitter,PLANT LOOP 1 DEMAND SPLITTER,PLANT LOOP 1 DEMAND INLET BRANCH,PLANT LOOP 1 DEMAND BRANCH 46,PLANT LOOP 1,Demand
     Plant Loop Connector Nodes,   46,Splitter,PLANT LOOP 1 DEMAND SPLITTER,PLANT LOOP 1 DEMAND INLET PIPE NODE,NODE 290,PLANT LOOP 1,Demand
     Plant Loop Connector Branches,47,Splitter,PLANT LOOP 1 DEMAND SPLITTER,PLANT LOOP 1 DEMAND INLET BRANCH,PLANT LOOP 1 DEMAND BYPASS BRANCH,PLANT LOOP 1,Demand
     Plant Loop Connector Nodes,   47,Splitter,PLANT LOOP 1 DEMAND SPLITTER,PLANT LOOP 1 DEMAND INLET PIPE NODE,PLANT LOOP 1 DEMAND BYPASS PIPE INLET NODE,PLANT LOOP 1,Demand
   Plant Loop Connector,Mixer,PLANT LOOP 1 DEMAND MIXER,PLANT LOOP 1,Demand,47
[...]
 Non-Parent Node Connection,AIR TERMINAL SINGLE DUCT VAV REHEAT 45 DAMPER OUTLET,COIL:HEATING:WATER,COIL HEATING WATER 46,Inlet,1
 Non-Parent Node Connection,NODE 282,COIL:HEATING:WATER,COIL HEATING WATER 46,Outlet,1
 Non-Parent Node Connection,NODE 290,COIL:HEATING:WATER,COIL HEATING WATER 47,Inlet,2
 Non-Parent Node Connection,NODE 291,COIL:HEATING:WATER,COIL HEATING WATER 47,Outlet,2
 Non-Parent Node Connection,AIR TERMINAL SINGLE DUCT VAV REHEAT 46 DAMPER OUTLET,COIL:HEATING:WATER,COIL HEATING WATER 47,Inlet,1
 Non-Parent Node Connection,NODE 287,COIL:HEATING:WATER,COIL HEATING WATER 47,Outlet,1
 Non-Parent Node Connection,AIR TERMINAL SINGLE DUCT VAV REHEAT 3 DAMPER OUTLET,AIRTERMINAL:SINGLEDUCT:VAV:REHEAT,AIR TERMINAL SINGLE DUCT VAV REHEAT 3,Outlet,1
 Non-Parent Node Connection,NODE 74,AIRTERMINAL:SINGLEDUCT:VAV:REHEAT,AIR TERMINAL SINGLE DUCT VAV REHEAT 3,Inlet,1
 Non-Parent Node Connection,AIR TERMINAL SINGLE DUCT VAV REHEAT 4 DAMPER OUTLET,AIRTERMINAL:SINGLEDUCT:VAV:REHEAT,AIR TERMINAL SINGLE DUCT VAV REHEAT 4,Outlet,1
 Non-Parent Node Connection,NODE 79,AIRTERMINAL:SINGLEDUCT:VAV:REHEAT,AIR TERMINAL SINGLE DUCT VAV REHEAT 4,Inlet,1
 Non-Parent Node Connection,AIR TERMINAL SINGLE DUCT VAV REHEAT 5 DAMPER OUTLET,AIRTERMINAL:SINGLEDUCT:VAV:REHEAT,AIR TERMINAL SINGLE DUCT VAV REHEAT 5,Outlet,1
 Non-Parent Node Connection,NODE 84,AIRTERMINAL:SINGLEDUCT:VAV:REHEAT,AIR TERMINAL SINGLE DUCT VAV REHEAT 5,Inlet,1
 Non-Parent Node Connection,AIR TERMINAL SINGLE DUCT VAV REHEAT 6 DAMPER OUTLET,AIRTERMINAL:SINGLEDUCT:VAV:REHEAT,AIR TERMINAL SINGLE DUCT VAV REHEAT 6,Outlet,1
 Non-Parent Node Connection,NODE 89,AIRTERMINAL:SINGLEDUCT:VAV:REHEAT,AIR TERMINAL SINGLE DUCT VAV REHEAT 6,Inlet,1
 Non-Parent Node Connection,AIR TERMINAL SINGLE DUCT VAV REHEAT 7 DAMPER OUTLET,AIRTERMINAL:SINGLEDUCT:VAV:REHEAT,AIR TERMINAL SINGLE DUCT VAV REHEAT 7,Outlet,1
 Non-Parent Node Connection,NODE 94,AIRTERMINAL:SINGLEDUCT:VAV:REHEAT,AIR TERMINAL SINGLE DUCT VAV REHEAT 7,Inlet,1
 Non-Parent Node Connection,AIR TERMINAL SINGLE DUCT VAV REHEAT 8 DAMPER OUTLET,AIRTERMINAL:SINGLEDUCT:VAV:REHEAT,AIR TERMINAL SINGLE DUCT VAV REHEAT 8,Outlet,1
 Non-Parent Node Connection,NODE 99,AIRTERMINAL:SINGLEDUCT:VAV:REHEAT,AIR TERMINAL SINGLE DUCT VAV REHEAT 8,Inlet,1
 Non-Parent Node Connection,AIR TERMINAL SINGLE DUCT VAV REHEAT 9 DAMPER OUTLET,AIRTERMINAL:SINGLEDUCT:VAV:REHEAT,AIR TERMINAL SINGLE DUCT VAV REHEAT 9,Outlet,1
 Non-Parent Node Connection,NODE 104,AIRTERMINAL:SINGLEDUCT:VAV:REHEAT,AIR TERMINAL SINGLE DUCT VAV REHEAT 9,Inlet,1
 Non-Parent Node Connection,AIR TERMINAL SINGLE DUCT VAV REHEAT 10 DAMPER OUTLET,AIRTERMINAL:SINGLEDUCT:VAV:REHEAT,AIR TERMINAL SINGLE DUCT VAV REHEAT 10,Outlet,1
 Non-Parent Node Connection,NODE 109,AIRTERMINAL:SINGLEDUCT:VAV:REHEAT,AIR TERMINAL SINGLE DUCT VAV REHEAT 10,Inlet,1
 Non-Parent Node Connection,AIR TERMINAL SINGLE DUCT VAV REHEAT 11 DAMPER OUTLET,AIRTERMINAL:SINGLEDUCT:VAV:REHEAT,AIR TERMINAL SINGLE DUCT VAV REHEAT 11,Outlet,1
 Non-Parent Node Connection,NODE 114,AIRTERMINAL:SINGLEDUCT:VAV:REHEAT,AIR TERMINAL SINGLE DUCT VAV REHEAT 11,Inlet,1
 Non-Parent Node Connection,AIR TERMINAL SINGLE DUCT VAV REHEAT 12 DAMPER OUTLET,AIRTERMINAL:SINGLEDUCT:VAV:REHEAT,AIR TERMINAL SINGLE DUCT VAV REHEAT 12,Outlet,1
 Non-Parent Node Connection,NODE 119,AIRTERMINAL:SINGLEDUCT:VAV:REHEAT,AIR TERMINAL SINGLE DUCT VAV REHEAT 12,Inlet,1
 Non-Parent Node Connection,AIR TERMINAL SINGLE DUCT VAV REHEAT 13 DAMPER OUTLET,AIRTERMINAL:SINGLEDUCT:VAV:REHEAT,AIR TERMINAL SINGLE DUCT VAV REHEAT 13,Outlet,1
 Non-Parent Node Connection,NODE 124,AIRTERMINAL:SINGLEDUCT:VAV:REHEAT,AIR TERMINAL SINGLE DUCT VAV REHEAT 13,Inlet,1
 Non-Parent Node Connection,AIR TERMINAL SINGLE DUCT VAV REHEAT 14 DAMPER OUTLET,AIRTERMINAL:SINGLEDUCT:VAV:REHEAT,AIR TERMINAL SINGLE DUCT VAV REHEAT 14,Outlet,1
 Non-Parent Node Connection,NODE 129,AIRTERMINAL:SINGLEDUCT:VAV:REHEAT,AIR TERMINAL SINGLE DUCT VAV REHEAT 14,Inlet,1
 Non-Parent Node Connection,AIR TERMINAL SINGLE DUCT VAV REHEAT 15 DAMPER OUTLET,AIRTERMINAL:SINGLEDUCT:VAV:REHEAT,AIR TERMINAL SINGLE DUCT VAV REHEAT 15,Outlet,1
 Non-Parent Node Connection,NODE 134,AIRTERMINAL:SINGLEDUCT:VAV:REHEAT,AIR TERMINAL SINGLE DUCT VAV REHEAT 15,Inlet,1
 Non-Parent Node Connection,AIR TERMINAL SINGLE DUCT VAV REHEAT 16 DAMPER OUTLET,AIRTERMINAL:SINGLEDUCT:VAV:REHEAT,AIR TERMINAL SINGLE DUCT VAV REHEAT 16,Outlet,1
 Non-Parent Node Connection,NODE 139,AIRTERMINAL:SINGLEDUCT:VAV:REHEAT,AIR TERMINAL SINGLE DUCT VAV REHEAT 16,Inlet,1
 Non-Parent Node Connection,AIR TERMINAL SINGLE DUCT VAV REHEAT 17 DAMPER OUTLET,AIRTERMINAL:SINGLEDUCT:VAV:REHEAT,AIR TERMINAL SINGLE DUCT VAV REHEAT 17,Outlet,1
 Non-Parent Node Connection,NODE 144,AIRTERMINAL:SINGLEDUCT:VAV:REHEAT,AIR TERMINAL SINGLE DUCT VAV REHEAT 17,Inlet,1
 Non-Parent Node Connection,AIR TERMINAL SINGLE DUCT VAV REHEAT 18 DAMPER OUTLET,AIRTERMINAL:SINGLEDUCT:VAV:REHEAT,AIR TERMINAL SINGLE DUCT VAV REHEAT 18,Outlet,1
 Non-Parent Node Connection,NODE 149,AIRTERMINAL:SINGLEDUCT:VAV:REHEAT,AIR TERMINAL SINGLE DUCT VAV REHEAT 18,Inlet,1
 Non-Parent Node Connection,AIR TERMINAL SINGLE DUCT VAV REHEAT 19 DAMPER OUTLET,AIRTERMINAL:SINGLEDUCT:VAV:REHEAT,AIR TERMINAL SINGLE DUCT VAV REHEAT 19,Outlet,1
 Non-Parent Node Connection,NODE 154,AIRTERMINAL:SINGLEDUCT:VAV:REHEAT,AIR TERMINAL SINGLE DUCT VAV REHEAT 19,Inlet,1
 Non-Parent Node Connection,AIR TERMINAL SINGLE DUCT VAV REHEAT 20 DAMPER OUTLET,AIRTERMINAL:SINGLEDUCT:VAV:REHEAT,AIR TERMINAL SINGLE DUCT VAV REHEAT 20,Outlet,1
 Non-Parent Node Connection,NODE 159,AIRTERMINAL:SINGLEDUCT:VAV:REHEAT,AIR TERMINAL SINGLE DUCT VAV REHEAT 20,Inlet,1
 Non-Parent Node Connection,AIR TERMINAL SINGLE DUCT VAV REHEAT 21 DAMPER OUTLET,AIRTERMINAL:SINGLEDUCT:VAV:REHEAT,AIR TERMINAL SINGLE DUCT VAV REHEAT 21,Outlet,1
 Non-Parent Node Connection,NODE 164,AIRTERMINAL:SINGLEDUCT:VAV:REHEAT,AIR TERMINAL SINGLE DUCT VAV REHEAT 21,Inlet,1
 Non-Parent Node Connection,AIR TERMINAL SINGLE DUCT VAV REHEAT 22 DAMPER OUTLET,AIRTERMINAL:SINGLEDUCT:VAV:REHEAT,AIR TERMINAL SINGLE DUCT VAV REHEAT 22,Outlet,1
 Non-Parent Node Connection,NODE 169,AIRTERMINAL:SINGLEDUCT:VAV:REHEAT,AIR TERMINAL SINGLE DUCT VAV REHEAT 22,Inlet,1
 Non-Parent Node Connection,AIR TERMINAL SINGLE DUCT VAV REHEAT 23 DAMPER OUTLET,AIRTERMINAL:SINGLEDUCT:VAV:REHEAT,AIR TERMINAL SINGLE DUCT VAV REHEAT 23,Outlet,1
 Non-Parent Node Connection,NODE 174,AIRTERMINAL:SINGLEDUCT:VAV:REHEAT,AIR TERMINAL SINGLE DUCT VAV REHEAT 23,Inlet,1
 Non-Parent Node Connection,AIR TERMINAL SINGLE DUCT VAV REHEAT 24 DAMPER OUTLET,AIRTERMINAL:SINGLEDUCT:VAV:REHEAT,AIR TERMINAL SINGLE DUCT VAV REHEAT 24,Outlet,1
 Non-Parent Node Connection,NODE 179,AIRTERMINAL:SINGLEDUCT:VAV:REHEAT,AIR TERMINAL SINGLE DUCT VAV REHEAT 24,Inlet,1
 Non-Parent Node Connection,AIR TERMINAL SINGLE DUCT VAV REHEAT 25 DAMPER OUTLET,AIRTERMINAL:SINGLEDUCT:VAV:REHEAT,AIR TERMINAL SINGLE DUCT VAV REHEAT 25,Outlet,1
 Non-Parent Node Connection,NODE 184,AIRTERMINAL:SINGLEDUCT:VAV:REHEAT,AIR TERMINAL SINGLE DUCT VAV REHEAT 25,Inlet,1
 Non-Parent Node Connection,AIR TERMINAL SINGLE DUCT VAV REHEAT 26 DAMPER OUTLET,AIRTERMINAL:SINGLEDUCT:VAV:REHEAT,AIR TERMINAL SINGLE DUCT VAV REHEAT 26,Outlet,1
 Non-Parent Node Connection,NODE 189,AIRTERMINAL:SINGLEDUCT:VAV:REHEAT,AIR TERMINAL SINGLE DUCT VAV REHEAT 26,Inlet,1
 Non-Parent Node Connection,AIR TERMINAL SINGLE DUCT VAV REHEAT 27 DAMPER OUTLET,AIRTERMINAL:SINGLEDUCT:VAV:REHEAT,AIR TERMINAL SINGLE DUCT VAV REHEAT 27,Outlet,1
 Non-Parent Node Connection,NODE 194,AIRTERMINAL:SINGLEDUCT:VAV:REHEAT,AIR TERMINAL SINGLE DUCT VAV REHEAT 27,Inlet,1
 Non-Parent Node Connection,AIR TERMINAL SINGLE DUCT VAV REHEAT 28 DAMPER OUTLET,AIRTERMINAL:SINGLEDUCT:VAV:REHEAT,AIR TERMINAL SINGLE DUCT VAV REHEAT 28,Outlet,1
 Non-Parent Node Connection,NODE 199,AIRTERMINAL:SINGLEDUCT:VAV:REHEAT,AIR TERMINAL SINGLE DUCT VAV REHEAT 28,Inlet,1
 Non-Parent Node Connection,AIR TERMINAL SINGLE DUCT VAV REHEAT 29 DAMPER OUTLET,AIRTERMINAL:SINGLEDUCT:VAV:REHEAT,AIR TERMINAL SINGLE DUCT VAV REHEAT 29,Outlet,1
 Non-Parent Node Connection,NODE 204,AIRTERMINAL:SINGLEDUCT:VAV:REHEAT,AIR TERMINAL SINGLE DUCT VAV REHEAT 29,Inlet,1
 Non-Parent Node Connection,AIR TERMINAL SINGLE DUCT VAV REHEAT 30 DAMPER OUTLET,AIRTERMINAL:SINGLEDUCT:VAV:REHEAT,AIR TERMINAL SINGLE DUCT VAV REHEAT 30,Outlet,1
 Non-Parent Node Connection,NODE 209,AIRTERMINAL:SINGLEDUCT:VAV:REHEAT,AIR TERMINAL SINGLE DUCT VAV REHEAT 30,Inlet,1
 Non-Parent Node Connection,AIR TERMINAL SINGLE DUCT VAV REHEAT 31 DAMPER OUTLET,AIRTERMINAL:SINGLEDUCT:VAV:REHEAT,AIR TERMINAL SINGLE DUCT VAV REHEAT 31,Outlet,1
 Non-Parent Node Connection,NODE 214,AIRTERMINAL:SINGLEDUCT:VAV:REHEAT,AIR TERMINAL SINGLE DUCT VAV REHEAT 31,Inlet,1
 Non-Parent Node Connection,AIR TERMINAL SINGLE DUCT VAV REHEAT 32 DAMPER OUTLET,AIRTERMINAL:SINGLEDUCT:VAV:REHEAT,AIR TERMINAL SINGLE DUCT VAV REHEAT 32,Outlet,1
 Non-Parent Node Connection,NODE 219,AIRTERMINAL:SINGLEDUCT:VAV:REHEAT,AIR TERMINAL SINGLE DUCT VAV REHEAT 32,Inlet,1
 Non-Parent Node Connection,AIR TERMINAL SINGLE DUCT VAV REHEAT 33 DAMPER OUTLET,AIRTERMINAL:SINGLEDUCT:VAV:REHEAT,AIR TERMINAL SINGLE DUCT VAV REHEAT 33,Outlet,1
 Non-Parent Node Connection,NODE 224,AIRTERMINAL:SINGLEDUCT:VAV:REHEAT,AIR TERMINAL SINGLE DUCT VAV REHEAT 33,Inlet,1
 Non-Parent Node Connection,AIR TERMINAL SINGLE DUCT VAV REHEAT 34 DAMPER OUTLET,AIRTERMINAL:SINGLEDUCT:VAV:REHEAT,AIR TERMINAL SINGLE DUCT VAV REHEAT 34,Outlet,1
 Non-Parent Node Connection,NODE 229,AIRTERMINAL:SINGLEDUCT:VAV:REHEAT,AIR TERMINAL SINGLE DUCT VAV REHEAT 34,Inlet,1
 Non-Parent Node Connection,AIR TERMINAL SINGLE DUCT VAV REHEAT 35 DAMPER OUTLET,AIRTERMINAL:SINGLEDUCT:VAV:REHEAT,AIR TERMINAL SINGLE DUCT VAV REHEAT 35,Outlet,1
 Non-Parent Node Connection,NODE 234,AIRTERMINAL:SINGLEDUCT:VAV:REHEAT,AIR TERMINAL SINGLE DUCT VAV REHEAT 35,Inlet,1
 Non-Parent Node Connection,AIR TERMINAL SINGLE DUCT VAV REHEAT 36 DAMPER OUTLET,AIRTERMINAL:SINGLEDUCT:VAV:REHEAT,AIR TERMINAL SINGLE DUCT VAV REHEAT 36,Outlet,1
 Non-Parent Node Connection,NODE 239,AIRTERMINAL:SINGLEDUCT:VAV:REHEAT,AIR TERMINAL SINGLE DUCT VAV REHEAT 36,Inlet,1
 Non-Parent Node Connection,AIR TERMINAL SINGLE DUCT VAV REHEAT 37 DAMPER OUTLET,AIRTERMINAL:SINGLEDUCT:VAV:REHEAT,AIR TERMINAL SINGLE DUCT VAV REHEAT 37,Outlet,1
 Non-Parent Node Connection,NODE 244,AIRTERMINAL:SINGLEDUCT:VAV:REHEAT,AIR TERMINAL SINGLE DUCT VAV REHEAT 37,Inlet,1
 Non-Parent Node Connection,AIR TERMINAL SINGLE DUCT VAV REHEAT 38 DAMPER OUTLET,AIRTERMINAL:SINGLEDUCT:VAV:REHEAT,AIR TERMINAL SINGLE DUCT VAV REHEAT 38,Outlet,1
 Non-Parent Node Connection,NODE 249,AIRTERMINAL:SINGLEDUCT:VAV:REHEAT,AIR TERMINAL SINGLE DUCT VAV REHEAT 38,Inlet,1
 Non-Parent Node Connection,AIR TERMINAL SINGLE DUCT VAV REHEAT 39 DAMPER OUTLET,AIRTERMINAL:SINGLEDUCT:VAV:REHEAT,AIR TERMINAL SINGLE DUCT VAV REHEAT 39,Outlet,1
 Non-Parent Node Connection,NODE 254,AIRTERMINAL:SINGLEDUCT:VAV:REHEAT,AIR TERMINAL SINGLE DUCT VAV REHEAT 39,Inlet,1
 Non-Parent Node Connection,AIR TERMINAL SINGLE DUCT VAV REHEAT 40 DAMPER OUTLET,AIRTERMINAL:SINGLEDUCT:VAV:REHEAT,AIR TERMINAL SINGLE DUCT VAV REHEAT 40,Outlet,1
 Non-Parent Node Connection,NODE 259,AIRTERMINAL:SINGLEDUCT:VAV:REHEAT,AIR TERMINAL SINGLE DUCT VAV REHEAT 40,Inlet,1
 Non-Parent Node Connection,AIR TERMINAL SINGLE DUCT VAV REHEAT 41 DAMPER OUTLET,AIRTERMINAL:SINGLEDUCT:VAV:REHEAT,AIR TERMINAL SINGLE DUCT VAV REHEAT 41,Outlet,1
 Non-Parent Node Connection,NODE 264,AIRTERMINAL:SINGLEDUCT:VAV:REHEAT,AIR TERMINAL SINGLE DUCT VAV REHEAT 41,Inlet,1
 Non-Parent Node Connection,AIR TERMINAL SINGLE DUCT VAV REHEAT 42 DAMPER OUTLET,AIRTERMINAL:SINGLEDUCT:VAV:REHEAT,AIR TERMINAL SINGLE DUCT VAV REHEAT 42,Outlet,1
 Non-Parent Node Connection,NODE 269,AIRTERMINAL:SINGLEDUCT:VAV:REHEAT,AIR TERMINAL SINGLE DUCT VAV REHEAT 42,Inlet,1
 Non-Parent Node Connection,AIR TERMINAL SINGLE DUCT VAV REHEAT 43 DAMPER OUTLET,AIRTERMINAL:SINGLEDUCT:VAV:REHEAT,AIR TERMINAL SINGLE DUCT VAV REHEAT 43,Outlet,1
 Non-Parent Node Connection,NODE 274,AIRTERMINAL:SINGLEDUCT:VAV:REHEAT,AIR TERMINAL SINGLE DUCT VAV REHEAT 43,Inlet,1
 Non-Parent Node Connection,AIR TERMINAL SINGLE DUCT VAV REHEAT 44 DAMPER OUTLET,AIRTERMINAL:SINGLEDUCT:VAV:REHEAT,AIR TERMINAL SINGLE DUCT VAV REHEAT 44,Outlet,1
 Non-Parent Node Connection,NODE 279,AIRTERMINAL:SINGLEDUCT:VAV:REHEAT,AIR TERMINAL SINGLE DUCT VAV REHEAT 44,Inlet,1
 Non-Parent Node Connection,AIR TERMINAL SINGLE DUCT VAV REHEAT 45 DAMPER OUTLET,AIRTERMINAL:SINGLEDUCT:VAV:REHEAT,AIR TERMINAL SINGLE DUCT VAV REHEAT 45,Outlet,1
 Non-Parent Node Connection,NODE 284,AIRTERMINAL:SINGLEDUCT:VAV:REHEAT,AIR TERMINAL SINGLE DUCT VAV REHEAT 45,Inlet,1
 Non-Parent Node Connection,AIR TERMINAL SINGLE DUCT VAV REHEAT 46 DAMPER OUTLET,AIRTERMINAL:SINGLEDUCT:VAV:REHEAT,AIR TERMINAL SINGLE DUCT VAV REHEAT 46,Outlet,1
 Non-Parent Node Connection,NODE 289,AIRTERMINAL:SINGLEDUCT:VAV:REHEAT,AIR TERMINAL SINGLE DUCT VAV REHEAT 46,Inlet,1
 Non-Parent Node Connection,NODE 49,AIRLOOPHVAC:ZONEMIXER,AIR LOOP HVAC ZONE MIXER 1,Outlet,1
 Non-Parent Node Connection,NODE 68,AIRLOOPHVAC:ZONEMIXER,AIR LOOP HVAC ZONE MIXER 1,Inlet,1
 Non-Parent Node Connection,NODE 73,AIRLOOPHVAC:ZONEMIXER,AIR LOOP HVAC ZONE MIXER 1,Inlet,1
 Non-Parent Node Connection,NODE 78,AIRLOOPHVAC:ZONEMIXER,AIR LOOP HVAC ZONE MIXER 1,Inlet,1
 Non-Parent Node Connection,NODE 83,AIRLOOPHVAC:ZONEMIXER,AIR LOOP HVAC ZONE MIXER 1,Inlet,1
 Non-Parent Node Connection,NODE 88,AIRLOOPHVAC:ZONEMIXER,AIR LOOP HVAC ZONE MIXER 1,Inlet,1
 Non-Parent Node Connection,NODE 93,AIRLOOPHVAC:ZONEMIXER,AIR LOOP HVAC ZONE MIXER 1,Inlet,1
 Non-Parent Node Connection,NODE 98,AIRLOOPHVAC:ZONEMIXER,AIR LOOP HVAC ZONE MIXER 1,Inlet,1
 Non-Parent Node Connection,NODE 103,AIRLOOPHVAC:ZONEMIXER,AIR LOOP HVAC ZONE MIXER 1,Inlet,1
 Non-Parent Node Connection,NODE 108,AIRLOOPHVAC:ZONEMIXER,AIR LOOP HVAC ZONE MIXER 1,Inlet,1
 Non-Parent Node Connection,NODE 113,AIRLOOPHVAC:ZONEMIXER,AIR LOOP HVAC ZONE MIXER 1,Inlet,1
 Non-Parent Node Connection,NODE 118,AIRLOOPHVAC:ZONEMIXER,AIR LOOP HVAC ZONE MIXER 1,Inlet,1
 Non-Parent Node Connection,NODE 123,AIRLOOPHVAC:ZONEMIXER,AIR LOOP HVAC ZONE MIXER 1,Inlet,1
 Non-Parent Node Connection,NODE 128,AIRLOOPHVAC:ZONEMIXER,AIR LOOP HVAC ZONE MIXER 1,Inlet,1
 Non-Parent Node Connection,NODE 133,AIRLOOPHVAC:ZONEMIXER,AIR LOOP HVAC ZONE MIXER 1,Inlet,1
 Non-Parent Node Connection,NODE 138,AIRLOOPHVAC:ZONEMIXER,AIR LOOP HVAC ZONE MIXER 1,Inlet,1
 Non-Parent Node Connection,NODE 143,AIRLOOPHVAC:ZONEMIXER,AIR LOOP HVAC ZONE MIXER 1,Inlet,1
 Non-Parent Node Connection,NODE 148,AIRLOOPHVAC:ZONEMIXER,AIR LOOP HVAC ZONE MIXER 1,Inlet,1
 Non-Parent Node Connection,NODE 153,AIRLOOPHVAC:ZONEMIXER,AIR LOOP HVAC ZONE MIXER 1,Inlet,1
 Non-Parent Node Connection,NODE 158,AIRLOOPHVAC:ZONEMIXER,AIR LOOP HVAC ZONE MIXER 1,Inlet,1
 Non-Parent Node Connection,NODE 163,AIRLOOPHVAC:ZONEMIXER,AIR LOOP HVAC ZONE MIXER 1,Inlet,1
 Non-Parent Node Connection,NODE 168,AIRLOOPHVAC:ZONEMIXER,AIR LOOP HVAC ZONE MIXER 1,Inlet,1
 Non-Parent Node Connection,NODE 173,AIRLOOPHVAC:ZONEMIXER,AIR LOOP HVAC ZONE MIXER 1,Inlet,1
 Non-Parent Node Connection,NODE 178,AIRLOOPHVAC:ZONEMIXER,AIR LOOP HVAC ZONE MIXER 1,Inlet,1
 Non-Parent Node Connection,NODE 183,AIRLOOPHVAC:ZONEMIXER,AIR LOOP HVAC ZONE MIXER 1,Inlet,1
 Non-Parent Node Connection,NODE 188,AIRLOOPHVAC:ZONEMIXER,AIR LOOP HVAC ZONE MIXER 1,Inlet,1
 Non-Parent Node Connection,NODE 193,AIRLOOPHVAC:ZONEMIXER,AIR LOOP HVAC ZONE MIXER 1,Inlet,1
 Non-Parent Node Connection,NODE 198,AIRLOOPHVAC:ZONEMIXER,AIR LOOP HVAC ZONE MIXER 1,Inlet,1
 Non-Parent Node Connection,NODE 203,AIRLOOPHVAC:ZONEMIXER,AIR LOOP HVAC ZONE MIXER 1,Inlet,1
 Non-Parent Node Connection,NODE 208,AIRLOOPHVAC:ZONEMIXER,AIR LOOP HVAC ZONE MIXER 1,Inlet,1
 Non-Parent Node Connection,NODE 213,AIRLOOPHVAC:ZONEMIXER,AIR LOOP HVAC ZONE MIXER 1,Inlet,1
 Non-Parent Node Connection,NODE 218,AIRLOOPHVAC:ZONEMIXER,AIR LOOP HVAC ZONE MIXER 1,Inlet,1
 Non-Parent Node Connection,NODE 223,AIRLOOPHVAC:ZONEMIXER,AIR LOOP HVAC ZONE MIXER 1,Inlet,1
 Non-Parent Node Connection,NODE 228,AIRLOOPHVAC:ZONEMIXER,AIR LOOP HVAC ZONE MIXER 1,Inlet,1
 Non-Parent Node Connection,NODE 233,AIRLOOPHVAC:ZONEMIXER,AIR LOOP HVAC ZONE MIXER 1,Inlet,1
 Non-Parent Node Connection,NODE 238,AIRLOOPHVAC:ZONEMIXER,AIR LOOP HVAC ZONE MIXER 1,Inlet,1
 Non-Parent Node Connection,NODE 243,AIRLOOPHVAC:ZONEMIXER,AIR LOOP HVAC ZONE MIXER 1,Inlet,1
 Non-Parent Node Connection,NODE 248,AIRLOOPHVAC:ZONEMIXER,AIR LOOP HVAC ZONE MIXER 1,Inlet,1
 Non-Parent Node Connection,NODE 253,AIRLOOPHVAC:ZONEMIXER,AIR LOOP HVAC ZONE MIXER 1,Inlet,1
 Non-Parent Node Connection,NODE 258,AIRLOOPHVAC:ZONEMIXER,AIR LOOP HVAC ZONE MIXER 1,Inlet,1
 Non-Parent Node Connection,NODE 263,AIRLOOPHVAC:ZONEMIXER,AIR LOOP HVAC ZONE MIXER 1,Inlet,1
 Non-Parent Node Connection,NODE 268,AIRLOOPHVAC:ZONEMIXER,AIR LOOP HVAC ZONE MIXER 1,Inlet,1
 Non-Parent Node Connection,NODE 273,AIRLOOPHVAC:ZONEMIXER,AIR LOOP HVAC ZONE MIXER 1,Inlet,1
 Non-Parent Node Connection,NODE 278,AIRLOOPHVAC:ZONEMIXER,AIR LOOP HVAC ZONE MIXER 1,Inlet,1
 Non-Parent Node Connection,NODE 283,AIRLOOPHVAC:ZONEMIXER,AIR LOOP HVAC ZONE MIXER 1,Inlet,1
 Non-Parent Node Connection,NODE 288,AIRLOOPHVAC:ZONEMIXER,AIR LOOP HVAC ZONE MIXER 1,Inlet,1
 Non-Parent Node Connection,NODE 53,OUTDOORAIR:MIXER,OUTDOORAIR:MIXER {B964C694-5D52-42E6-B094-3C6D52052C05},Outlet,1
 Non-Parent Node Connection,NODE 51,OUTDOORAIR:MIXER,OUTDOORAIR:MIXER {B964C694-5D52-42E6-B094-3C6D52052C05},Inlet,1
 Non-Parent Node Connection,NODE 52,OUTDOORAIR:MIXER,OUTDOORAIR:MIXER {B964C694-5D52-42E6-B094-3C6D52052C05},ReliefAir,1
 Non-Parent Node Connection,NODE 46,OUTDOORAIR:MIXER,OUTDOORAIR:MIXER {B964C694-5D52-42E6-B094-3C6D52052C05},Inlet,1
 Non-Parent Node Connection,NODE 55,CONTROLLER:WATERCOIL,CONTROLLER WATER COIL 1,Sensor,1
 Non-Parent Node Connection,NODE 61,CONTROLLER:WATERCOIL,CONTROLLER WATER COIL 1,Actuator,1
 Non-Parent Node Connection,NODE 53,CONTROLLER:OUTDOORAIR,CONTROLLER OUTDOOR AIR 1,Sensor,1
 Non-Parent Node Connection,NODE 51,CONTROLLER:OUTDOORAIR,CONTROLLER OUTDOOR AIR 1,Actuator,1
 Non-Parent Node Connection,NODE 52,CONTROLLER:OUTDOORAIR,CONTROLLER OUTDOOR AIR 1,Actuator,1
 Non-Parent Node Connection,NODE 46,CONTROLLER:OUTDOORAIR,CONTROLLER OUTDOOR AIR 1,Sensor,1
 Non-Parent Node Connection,NODE 53,COIL:COOLING:DX:TWOSPEED,COIL COOLING DX TWO SPEED 1,Inlet,1
 Non-Parent Node Connection,NODE 54,COIL:COOLING:DX:TWOSPEED,COIL COOLING DX TWO SPEED 1,Outlet,1
 Non-Parent Node Connection,NODE 55,FAN:VARIABLEVOLUME,FAN VARIABLE VOLUME 1,Inlet,1
 Non-Parent Node Connection,NODE 47,FAN:VARIABLEVOLUME,FAN VARIABLE VOLUME 1,Outlet,1
 Non-Parent Node Connection,NODE 64,PIPE:ADIABATIC,PIPE ADIABATIC 1,Inlet,1
 Non-Parent Node Connection,NODE 65,PIPE:ADIABATIC,PIPE ADIABATIC 1,Outlet,1
 Non-Parent Node Connection,NODE 66,PIPE:ADIABATIC,PIPE ADIABATIC 2,Inlet,1
 Non-Parent Node Connection,NODE 57,PIPE:ADIABATIC,PIPE ADIABATIC 2,Outlet,1
 Non-Parent Node Connection,NODE 59,PIPE:ADIABATIC,PLANT LOOP 1 DEMAND INLET PIPE,Inlet,1
 Non-Parent Node Connection,PLANT LOOP 1 DEMAND INLET PIPE NODE,PIPE:ADIABATIC,PLANT LOOP 1 DEMAND INLET PIPE,Outlet,1
 Non-Parent Node Connection,PLANT LOOP 1 DEMAND BYPASS PIPE INLET NODE,PIPE:ADIABATIC,PLANT LOOP 1 DEMAND BYPASS PIPE,Inlet,1
 Non-Parent Node Connection,PLANT LOOP 1 DEMAND BYPASS PIPE OUTLET NODE,PIPE:ADIABATIC,PLANT LOOP 1 DEMAND BYPASS PIPE,Outlet,1
 Non-Parent Node Connection,PLANT LOOP 1 DEMAND OUTLET PIPE NODE,PIPE:ADIABATIC,PLANT LOOP 1 DEMAND OUTLET PIPE,Inlet,1
 Non-Parent Node Connection,NODE 60,PIPE:ADIABATIC,PLANT LOOP 1 DEMAND OUTLET PIPE,Outlet,1
 Non-Parent Node Connection,NODE 58,BOILER:HOTWATER,BOILER HOT WATER 1,Inlet,1
 Non-Parent Node Connection,NODE 63,BOILER:HOTWATER,BOILER HOT WATER 1,Outlet,1
 Non-Parent Node Connection,NODE 56,PUMP:VARIABLESPEED,PUMP VARIABLE SPEED 1,Inlet,1
 Non-Parent Node Connection,NODE 62,PUMP:VARIABLESPEED,PUMP VARIABLE SPEED 1,Outlet,1
