  0
SECTION
  2
ENTITIES
999
DXF created from EnergyPlus
999
Program Version,EnergyPlus, Linux, VERSION 7.1.0.012, YMD=2013.07.09 21:55
999
Polygon Action,ThickPolyline
999
Color Scheme,Default
999
Text - True North
  0
TEXT
  8
1
  6
Continuous
 62
  3
 10
      -11.00000
 20
        3.00000
 30
        0.10000
 40
 .25
  1
True North
 41
 0.0
  7
MONOTXT
210
0.0
220
0.0
230
1.0
999
Text - Building Title
  0
TEXT
  8
1
  6
Continuous
 62
  3
 10
      -14.00000
 20
       -1.00000
 30
        0.10000
 40
 .4
  1
Building - 3901_baring
 41
 0.0
  7
MONOTXT
210
0.0
220
0.0
230
1.0
999
North Arrow Stem
  0
3DFACE
  8
1
 62
  3
 10
      -10.00000
 20
        3.00000
 30
        0.10000
 11
      -10.00000
 21
        3.00000
 31
        0.00000
 12
      -10.00000
 22
        0.00000
 32
        0.00000
 13
      -10.00000
 23
        0.00000
 33
        0.10000
999
North Arrow Head 1
  0
3DFACE
  8
1
 62
  3
 10
      -10.00000
 20
        3.00000
 30
        0.10000
 11
      -10.00000
 21
        3.00000
 31
        0.00000
 12
      -10.50000
 22
        2.13398
 32
        0.00000
 13
      -10.50000
 23
        2.13398
 33
        0.10000
999
North Arrow Head 2
  0
3DFACE
  8
1
 62
  3
 10
      -10.00000
 20
        3.00000
 30
        0.10000
 11
      -10.00000
 21
        3.00000
 31
        0.00000
 12
       -9.50000
 22
        2.13398
 32
        0.00000
 13
       -9.50000
 23
        2.13398
 33
        0.10000
999
North Arrow Side 1
  0
3DFACE
  8
1
 62
  3
 10
      -10.50000
 20
        4.50000
 30
        0.10000
 11
      -10.50000
 21
        4.50000
 31
        0.00000
 12
      -10.50000
 22
        3.50000
 32
        0.00000
 13
      -10.50000
 23
        3.50000
 33
        0.10000
999
North Arrow Side 2
  0
3DFACE
  8
1
 62
  3
 10
      -10.50000
 20
        4.50000
 30
        0.10000
 11
      -10.50000
 21
        4.50000
 31
        0.00000
 12
       -9.50000
 22
        3.50000
 32
        0.00000
 13
       -9.50000
 23
        3.50000
 33
        0.10000
999
North Arrow Side 3
  0
3DFACE
  8
1
 62
  3
 10
       -9.50000
 20
        4.50000
 30
        0.10000
 11
       -9.50000
 21
        4.50000
 31
        0.00000
 12
       -9.50000
 22
        3.50000
 32
        0.00000
 13
       -9.50000
 23
        3.50000
 33
        0.10000
999
Zone Names
999
Zone=1:ZONE1
999
ZONE1:ZONE1W
  0
3DFACE
  8
ZONE1
 62
 43
 10
        0.00000
 20
        5.00000
 30
        3.00000
 11
        0.00000
 21
        0.00000
 31
        3.00000
 12
        0.00000
 22
        0.00000
 32
        0.00000
 13
        0.00000
 23
        5.00000
 33
        0.00000
999
ZONE1:ZONE1S
  0
3DFACE
  8
ZONE1
 62
 43
 10
        0.00000
 20
        0.00000
 30
        3.00000
 11
       10.00000
 21
        0.00000
 31
        3.00000
 12
       10.00000
 22
        0.00000
 32
        0.00000
 13
        0.00000
 23
        0.00000
 33
        0.00000
999
ZONE1:ZNSWINDOW
  0
3DFACE
  8
ZONE1
 62
143
 10
        5.50000
 20
        0.00000
 30
        3.00000
 11
        6.50000
 21
        0.00000
 31
        3.00000
 12
        6.50000
 22
        0.00000
 32
        2.00000
 13
        5.50000
 23
        0.00000
 33
        2.00000
999
ZONE1:ZONE1E
  0
3DFACE
  8
ZONE1
 62
 43
 10
       10.00000
 20
        0.00000
 30
        3.00000
 11
       10.00000
 21
        5.00000
 31
        3.00000
 12
       10.00000
 22
        5.00000
 32
        0.00000
 13
       10.00000
 23
        0.00000
 33
        0.00000
999
ZONE1:ZONE1N
  0
3DFACE
  8
ZONE1
 62
 43
 10
       10.00000
 20
        5.00000
 30
        3.00000
 11
        0.00000
 21
        5.00000
 31
        3.00000
 12
        0.00000
 22
        5.00000
 32
        0.00000
 13
       10.00000
 23
        5.00000
 33
        0.00000
999
ZONE1:ZONE1F
  0
3DFACE
  8
ZONE1
 62
  8
 10
        0.00000
 20
        5.00000
 30
        0.00000
 11
       10.00000
 21
        5.00000
 31
        0.00000
 12
       10.00000
 22
        0.00000
 32
        0.00000
 13
        0.00000
 23
        0.00000
 33
        0.00000
999
ZONE1:ZONE1C
  0
3DFACE
  8
ZONE1
 62
 15
 10
       10.00000
 20
        5.00000
 30
        3.00000
 11
        0.00000
 21
        5.00000
 31
        3.00000
 12
        0.00000
 22
        0.00000
 32
        3.00000
 13
       10.00000
 23
        0.00000
 33
        3.00000
  0
ENDSEC
  0
EOF
