Program Version,EnergyPlus, Linux, VERSION 7.1.0.012, YMD=2013.04.22 02:13,IDD_Version 7.1.0.012
   ** Warning ** Output:PreprocessorMessage="ExpandObjects" has the following Warning condition:
   **   ~~~   ** Cannot find Energy+.idd as specified in Energy+.ini.
   ** Warning ** Output:PreprocessorMessage="ExpandObjects" has the following Warning conditions:
   **   ~~~   ** Since the Energy+.IDD file cannot be read no range or choice checking was
   **   ~~~   ** performed.
   ** Warning ** IP: Note -- Some missing fields have been filled with defaults. See the audit output file for details.
   ** Warning ** GetVertices: Floor is upside down! Tilt angle=[0.0], should be near 180, Surface="ZONE1F", in Zone="ZONE1".
   **   ~~~   ** Automatic fix is attempted.
   ** Warning ** GetVertices: Roof/Ceiling is upside down! Tilt angle=[180.0], should be near 0, Surface="ZONE1C", in Zone="ZONE1".
   **   ~~~   ** Automatic fix is attempted.
   ** Warning ** GetInternalHeatGains: People=PEOPLENAME", Activity Level Schedule Name values
   **   ~~~   ** fall outside typical range [70,1000] W/person for Thermal Comfort Reporting.
   **   ~~~   ** Schedule="WORK9-17; Odd comfort values may result. Entered min/max range=[0.0,1.0] W/person.
   ** Severe  ** Problem in interior solar distribution calculation (CHKBKS)
   **   ~~~   **    Solar Distribution = FullInteriorExterior will not work in Zone=ZONE1
   **   ~~~   **    because vertex 1 of back surface=ZONE1W is in front of receiving surface=ZONE1S
   **   ~~~   **    (Dot Product indicator=150.0000)
   **   ~~~   **    Check surface geometry; if OK, use Solar Distribution = FullExterior instead.
   ** Severe  ** Problem in interior solar distribution calculation (CHKBKS)
   **   ~~~   **    Solar Distribution = FullInteriorExterior will not work in Zone=ZONE1
   **   ~~~   **    because vertex 4 of back surface=ZONE1W is in front of receiving surface=ZONE1S
   **   ~~~   **    (Dot Product indicator=150.0000)
   **   ~~~   **    Check surface geometry; if OK, use Solar Distribution = FullExterior instead.
   ** Severe  ** Problem in interior solar distribution calculation (CHKBKS)
   **   ~~~   **    Solar Distribution = FullInteriorExterior will not work in Zone=ZONE1
   **   ~~~   **    because vertex 2 of back surface=ZONE1E is in front of receiving surface=ZONE1S
   **   ~~~   **    (Dot Product indicator=150.0000)
   **   ~~~   **    Check surface geometry; if OK, use Solar Distribution = FullExterior instead.
   ** Severe  ** Problem in interior solar distribution calculation (CHKBKS)
   **   ~~~   **    Solar Distribution = FullInteriorExterior will not work in Zone=ZONE1
   **   ~~~   **    because vertex 3 of back surface=ZONE1E is in front of receiving surface=ZONE1S
   **   ~~~   **    (Dot Product indicator=150.0000)
   **   ~~~   **    Check surface geometry; if OK, use Solar Distribution = FullExterior instead.
   ** Severe  ** Problem in interior solar distribution calculation (CHKBKS)
   **   ~~~   **    Solar Distribution = FullInteriorExterior will not work in Zone=ZONE1
   **   ~~~   **    because vertex 1 of back surface=ZONE1N is in front of receiving surface=ZONE1S
   **   ~~~   **    (Dot Product indicator=150.0000)
   **   ~~~   **    Check surface geometry; if OK, use Solar Distribution = FullExterior instead.
   ** Severe  ** Problem in interior solar distribution calculation (CHKBKS)
   **   ~~~   **    Solar Distribution = FullInteriorExterior will not work in Zone=ZONE1
   **   ~~~   **    because vertex 2 of back surface=ZONE1N is in front of receiving surface=ZONE1S
   **   ~~~   **    (Dot Product indicator=150.0000)
   **   ~~~   **    Check surface geometry; if OK, use Solar Distribution = FullExterior instead.
   ** Severe  ** Problem in interior solar distribution calculation (CHKBKS)
   **   ~~~   **    Solar Distribution = FullInteriorExterior will not work in Zone=ZONE1
   **   ~~~   **    because vertex 3 of back surface=ZONE1N is in front of receiving surface=ZONE1S
   **   ~~~   **    (Dot Product indicator=150.0000)
   **   ~~~   **    Check surface geometry; if OK, use Solar Distribution = FullExterior instead.
   ** Severe  ** Problem in interior solar distribution calculation (CHKBKS)
   **   ~~~   **    Solar Distribution = FullInteriorExterior will not work in Zone=ZONE1
   **   ~~~   **    because vertex 4 of back surface=ZONE1N is in front of receiving surface=ZONE1S
   **   ~~~   **    (Dot Product indicator=150.0000)
   **   ~~~   **    Check surface geometry; if OK, use Solar Distribution = FullExterior instead.
   ** Severe  ** Problem in interior solar distribution calculation (CHKBKS)
   **   ~~~   **    Solar Distribution = FullInteriorExterior will not work in Zone=ZONE1
   **   ~~~   **    because vertex 1 of back surface=ZONE1F is in front of receiving surface=ZONE1S
   **   ~~~   **    (Dot Product indicator=150.0000)
   **   ~~~   **    Check surface geometry; if OK, use Solar Distribution = FullExterior instead.
   ** Severe  ** Problem in interior solar distribution calculation (CHKBKS)
   **   ~~~   **    Solar Distribution = FullInteriorExterior will not work in Zone=ZONE1
   **   ~~~   **    because vertex 2 of back surface=ZONE1F is in front of receiving surface=ZONE1S
   **   ~~~   **    (Dot Product indicator=150.0000)
   **   ~~~   **    Check surface geometry; if OK, use Solar Distribution = FullExterior instead.
   ** Severe  ** Problem in interior solar distribution calculation (CHKBKS)
   **   ~~~   **    Solar Distribution = FullInteriorExterior will not work in Zone=ZONE1
   **   ~~~   **    because vertex 1 of back surface=ZONE1C is in front of receiving surface=ZONE1S
   **   ~~~   **    (Dot Product indicator=150.0000)
   **   ~~~   **    Check surface geometry; if OK, use Solar Distribution = FullExterior instead.
   ** Severe  ** Problem in interior solar distribution calculation (CHKBKS)
   **   ~~~   **    Solar Distribution = FullInteriorExterior will not work in Zone=ZONE1
   **   ~~~   **    because vertex 2 of back surface=ZONE1C is in front of receiving surface=ZONE1S
   **   ~~~   **    (Dot Product indicator=150.0000)
   **   ~~~   **    Check surface geometry; if OK, use Solar Distribution = FullExterior instead.
   ************* Testing Individual Branch Integrity
   ************* All Branches passed integrity testing
   ************* Testing Individual Supply Air Path Integrity
   ************* All Supply Air Paths passed integrity testing
   ************* Testing Individual Return Air Path Integrity
   ************* All Return Air Paths passed integrity testing
   ************* No node connection errors were found.
   ************* Beginning Simulation
   ************* Simulation Error Summary *************
   ************* EnergyPlus Warmup Error Summary. During Warmup: 0 Warning; 0 Severe Errors.
   ************* EnergyPlus Sizing Error Summary. During Sizing: 0 Warning; 0 Severe Errors.
   ************* EnergyPlus Completed Successfully-- 6 Warning; 12 Severe Errors; Elapsed Time=00hr 01min 39.33sec
