Program Version,EnergyPlus-Linux-OMP-32 7.2.0.006, YMD=2013.05.02 17:41
! <Version>, Version ID
 Version, 7.2
! <Timesteps per Hour>, #TimeSteps, Minutes per TimeStep {minutes}
 Timesteps per Hour,  4, 15
! <System Convergence Limits>, Minimum System TimeStep {minutes}, Max HVAC Iterations,  Minimum Plant Iterations, Maximum Plant Iterations
 System Convergence Limits, 1, 20, 2, 8
! <Simulation Control>, Do Zone Sizing, Do System Sizing, Do Plant Sizing, Do Design Days, Do Weather Simulation
 Simulation Control, Yes, Yes, Yes, Yes, Yes
! <Output Reporting Tolerances>, Tolerance for Time Heating Setpoint Not Met, Tolerance for Time Cooling Setpoint Not Met
 Output Reporting Tolerances, 0.200, 0.200, 
! <Site:GroundTemperature:BuildingSurface>, Months From Jan to Dec {Deg C}
 Site:GroundTemperature:BuildingSurface,  18.00,  18.00,  18.00,  18.00,  18.00,  18.00,  18.00,  18.00,  18.00,  18.00,  18.00,  18.00
! <Site:GroundTemperature:FCfactorMethod>, Months From Jan to Dec {Deg C}
 Site:GroundTemperature:FCfactorMethod,  10.86,  10.57,  11.08,  11.88,  13.97,  15.58,  16.67,  17.00,  16.44,  15.19,  13.51,  11.96
! <Site:GroundTemperature:Shallow>, Months From Jan to Dec {Deg C}
 Site:GroundTemperature:Shallow,  13.00,  13.00,  13.00,  13.00,  13.00,  13.00,  13.00,  13.00,  13.00,  13.00,  13.00,  13.00
! <Site:GroundTemperature:Deep>, Months From Jan to Dec {Deg C}
 Site:GroundTemperature:Deep,  16.00,  16.00,  16.00,  16.00,  16.00,  16.00,  16.00,  16.00,  16.00,  16.00,  16.00,  16.00
! <Site:GroundReflectance>, Months From Jan to Dec {dimensionless}
 Site:GroundReflectance,  0.20,  0.20,  0.20,  0.20,  0.20,  0.20,  0.20,  0.20,  0.20,  0.20,  0.20,  0.20
! <Site:GroundReflectance:SnowModifier>, Normal, Daylighting {dimensionless}
 Site:GroundReflectance:SnowModifier,   1.000,   1.000
! <Site:GroundReflectance:Snow>, Months From Jan to Dec {dimensionless}
 Site:GroundReflectance:Snow,  0.20,  0.20,  0.20,  0.20,  0.20,  0.20,  0.20,  0.20,  0.20,  0.20,  0.20,  0.20
! <Site:GroundReflectance:Snow:Daylighting>, Months From Jan to Dec {dimensionless}
 Site:GroundReflectance:Snow:Daylighting,  0.20,  0.20,  0.20,  0.20,  0.20,  0.20,  0.20,  0.20,  0.20,  0.20,  0.20,  0.20
! <Environment:Weather Station>,Wind Sensor Height Above Ground {m},Wind Speed Profile Exponent {},Wind Speed Profile Boundary Layer Thickness {m},Air Temperature Sensor Height Above Ground {m},Wind Speed Modifier Coefficient [Internal],Temperature Modifier Coefficient [Internal]
Environment:Weather Station,10.000,0.140,270.000,1.500,1.586,9.750E-003
! <Site:Location>, Location Name, Latitude {N+/S- Deg}, Longitude {E+/W- Deg},  Time Zone Number {GMT+/-}, Elevation {m},  Standard Pressure at Elevation {Pa}, Standard RhoAir at Elevation
Site:Location,San Francisco Intl Ap CA USA TMY3 WMO#=724940,37.62,-122.40,-8.00,2.00,101301,1.2040
! <Building Information>, Building Name,North Axis {deg},Terrain,  Loads Convergence Tolerance Value,Temperature Convergence Tolerance Value,  Solar Distribution,Maximum Number of Warmup Days,Minimum Number of Warmup Days
 Building Information,Building 1,0.000,Suburbs,4.00000E-002,0.40000,FullExterior,25,6
! <Inside Convection Algorithm>, Algorithm {Simple | TARP | CeilingDiffuser | AdaptiveConvectionAlgorithm}
Inside Convection Algorithm,TARP
! <Outside Convection Algorithm>, Algorithm {SimpleCombined | TARP | MoWitt | DOE-2 | AdaptiveConvectionAlgorithm}
Outside Convection Algorithm,DOE-2
! <Sky Radiance Distribution>, Value {Anisotropic}
Sky Radiance Distribution,Anisotropic
! <Zone Air Solution Algorithm>, Value {ThirdOrderBackwardDifference | AnalyticalSolution | EulerMethod}
 Zone Air Solution Algorithm, ThirdOrderBackwardDifference
! <Zone Air Contaminant Balance Simulation>, Simulation {Yes/No}, Carbon Dioxide Concentration
 Zone Air Carbon Dioxide Balance Simulation, No,N/A
! <Zone Air Contaminant Balance Simulation>, Simulation {Yes/No}, Generic Contaminant Concentration
 Zone Air Generic Contaminant Balance Simulation, No,N/A
! <Environment:Site Atmospheric Variation>,Wind Speed Profile Exponent {},Wind Speed Profile Boundary Layer Thickness {m},Air Temperature Gradient Coefficient {K/m}
Environment:Site Atmospheric Variation,0.220,370.000,6.500000E-003
! <SurfaceGeometry>,Starting Corner,Vertex Input Direction,Coordinate System,Daylight Reference Point Coordinate System,Rectangular (Simple) Surface Coordinate System
 Surface Geometry,UpperLeftCorner,Counterclockwise,RelativeCoordinateSystem,RelativeCoordinateSystem,RelativeToZoneOrigin
! <Surface Heat Transfer Algorithm>, Value {CTF - ConductionTransferFunction | EMPD - MoisturePenetrationDepthConductionTransferFunction | CondFD - ConductionFiniteDifference | HAMT - CombinedHeatAndMoistureFiniteElement} - Description,Inside Surface Max Temperature Limit{C}, Surface Convection Coefficient Lower Limit {W/m2-K}, Surface Convection Coefficient Upper Limit {W/m2-K}
Surface Heat Transfer Algorithm, CTF - ConductionTransferFunction,200,0.10,1000.0
! <Shading Summary>, Number of Fixed Detached Shades, Number of Building Detached Shades, Number of Attached Shades
 Shading Summary,0,0,0
! <Zone Summary>, Number of Zones, Number of Zone Surfaces, Number of SubSurfaces
 Zone Summary,45,306,36
! <Zone Information>,Zone Name,North Axis {deg},Origin X-Coordinate {m},Origin Y-Coordinate {m},Origin Z-Coordinate {m},Centroid X-Coordinate {m},Centroid Y-Coordinate {m},Centroid Z-Coordinate {m},Type,Zone Multiplier,Zone List Multiplier,Minimum X {m},Maximum X {m},Minimum Y {m},Maximum Y {m},Minimum Z {m},Maximum Z {m},Ceiling Height {m},Volume {m3},Zone Inside Convection Algorithm {Simple-Detailed-CeilingDiffuser-TrombeWall},Zone Outside Convection Algorithm {Simple-Detailed-Tarp-MoWitt-DOE-2-BLAST}, Floor Area {m2},Exterior Gross Wall Area {m2},Exterior Net Wall Area {m2},Exterior Window Area {m2}, Number of Surfaces, Number of SubSurfaces, Number of Shading SubSurfaces,  Part of Total Building Area
 Zone Information, THERMAL ZONE 32,0.0,0.00,0.00,4.00,279.28,1.49,6.00,1,1,1,0.00,558.57,0.00,3.00,4.00,8.00,4.00,6666.84,TARP,DOE-2,1666.71,2234.28,1563.99,670.28,6,1,0,Yes
 Zone Information, THERMAL ZONE 20,0.0,555.57,3.00,8.00,557.08,279.28,10.00,1,1,1,555.57,558.57,0.00,558.57,8.00,12.00,4.00,6666.84,TARP,DOE-2,1666.71,2234.28,1563.99,670.28,6,1,0,Yes
 Zone Information, THERMAL ZONE 39,0.0,0.00,0.00,24.00,279.28,1.49,26.00,1,1,1,0.00,558.57,0.00,3.00,24.00,28.00,4.00,6666.84,TARP,DOE-2,1666.71,2234.28,1563.99,670.28,6,1,0,Yes
 Zone Information, THERMAL ZONE 6,0.0,0.00,0.00,16.00,279.28,1.49,18.00,1,1,1,0.00,558.57,0.00,3.00,16.00,20.00,4.00,6666.84,TARP,DOE-2,1666.71,2234.28,1563.99,670.28,6,1,0,Yes
 Zone Information, THERMAL ZONE 40,0.0,3.00,555.57,4.00,279.28,557.08,6.00,1,1,1,0.00,558.57,555.57,558.57,4.00,8.00,4.00,6666.84,TARP,DOE-2,1666.71,2234.28,1563.99,670.28,6,1,0,Yes
 Zone Information, THERMAL ZONE 1,0.0,3.00,555.57,28.00,279.28,557.08,30.00,1,1,1,0.00,558.57,555.57,558.57,28.00,32.00,4.00,6666.84,TARP,DOE-2,1666.71,2234.28,1563.99,670.28,6,1,0,Yes
 Zone Information, THERMAL ZONE 2,0.0,3.00,555.57,16.00,279.28,557.08,18.00,1,1,1,0.00,558.57,555.57,558.57,16.00,20.00,4.00,6666.84,TARP,DOE-2,1666.71,2234.28,1563.99,670.28,6,1,0,Yes
 Zone Information, THERMAL ZONE 23,0.0,3.00,3.00,24.00,279.28,279.28,26.00,1,1,1,3.00,555.57,3.00,555.57,24.00,28.00,4.00,1221332.66,TARP,DOE-2,305333.16,0.00,0.00,0.00,6,0,0,Yes
 Zone Information, THERMAL ZONE 25,0.0,3.00,555.57,20.00,279.28,557.08,22.00,1,1,1,0.00,558.57,555.57,558.57,20.00,24.00,4.00,6666.84,TARP,DOE-2,1666.71,2234.28,1563.99,670.28,6,1,0,Yes
 Zone Information, THERMAL ZONE 28,0.0,3.00,3.00,32.00,279.28,279.28,34.00,1,1,1,3.00,555.57,3.00,555.57,32.00,36.00,4.00,1221332.66,TARP,DOE-2,305333.16,0.00,0.00,0.00,6,0,0,Yes
 Zone Information, THERMAL ZONE 30,0.0,3.00,555.57,8.00,279.28,557.08,10.00,1,1,1,0.00,558.57,555.57,558.57,8.00,12.00,4.00,6666.84,TARP,DOE-2,1666.71,2234.28,1563.99,670.28,6,1,0,Yes
 Zone Information, THERMAL ZONE 13,0.0,3.00,3.00,0.00,279.28,279.28,2.00,1,1,1,3.00,555.57,3.00,555.57,0.00,4.00,4.00,1221332.66,TARP,DOE-2,305333.16,0.00,0.00,0.00,6,0,0,Yes
 Zone Information, THERMAL ZONE 35,0.0,555.57,3.00,0.00,557.08,279.28,2.00,1,1,1,555.57,558.57,0.00,558.57,0.00,4.00,4.00,6666.84,TARP,DOE-2,1666.71,2234.28,1563.99,670.28,6,1,0,Yes
 Zone Information, THERMAL ZONE 36,0.0,3.00,3.00,12.00,279.28,279.28,14.00,1,1,1,3.00,555.57,3.00,555.57,12.00,16.00,4.00,1221332.66,TARP,DOE-2,305333.16,0.00,0.00,0.00,6,0,0,Yes
 Zone Information, THERMAL ZONE 15,0.0,0.00,0.00,8.00,1.49,279.28,10.00,1,1,1,0.00,3.00,0.00,558.57,8.00,12.00,4.00,6666.84,TARP,DOE-2,1666.71,2234.28,1563.99,670.28,6,1,0,Yes
 Zone Information, THERMAL ZONE 29,0.0,0.00,0.00,32.00,279.28,1.49,34.00,1,1,1,0.00,558.57,0.00,3.00,32.00,36.00,4.00,6666.84,TARP,DOE-2,1666.71,2234.28,1563.99,670.28,6,1,0,Yes
 Zone Information, THERMAL ZONE 22,0.0,0.00,0.00,12.00,1.49,279.28,14.00,1,1,1,0.00,3.00,0.00,558.57,12.00,16.00,4.00,6666.84,TARP,DOE-2,1666.71,2234.28,1563.99,670.28,6,1,0,Yes
 Zone Information, THERMAL ZONE 14,0.0,555.57,3.00,12.00,557.08,279.28,14.00,1,1,1,555.57,558.57,0.00,558.57,12.00,16.00,4.00,6666.84,TARP,DOE-2,1666.71,2234.28,1563.99,670.28,6,1,0,Yes
 Zone Information, THERMAL ZONE 7,0.0,0.00,0.00,16.00,1.49,279.28,18.00,1,1,1,0.00,3.00,0.00,558.57,16.00,20.00,4.00,6666.84,TARP,DOE-2,1666.71,2234.28,1563.99,670.28,6,1,0,Yes
 Zone Information, THERMAL ZONE 9,0.0,0.00,0.00,32.00,1.49,279.28,34.00,1,1,1,0.00,3.00,0.00,558.57,32.00,36.00,4.00,6666.84,TARP,DOE-2,1666.71,2234.28,1563.99,670.28,6,1,0,Yes
 Zone Information, THERMAL ZONE 4,0.0,0.00,0.00,0.00,279.28,1.49,2.00,1,1,1,0.00,558.57,0.00,3.00,0.00,4.00,4.00,6666.84,TARP,DOE-2,1666.71,2234.28,1563.99,670.28,6,1,0,Yes
 Zone Information, THERMAL ZONE 41,0.0,0.00,0.00,28.00,1.49,279.28,30.00,1,1,1,0.00,3.00,0.00,558.57,28.00,32.00,4.00,6666.84,TARP,DOE-2,1666.71,2234.28,1563.99,670.28,6,1,0,Yes
 Zone Information, THERMAL ZONE 45,0.0,3.00,555.57,32.00,279.28,557.08,34.00,1,1,1,0.00,558.57,555.57,558.57,32.00,36.00,4.00,6666.84,TARP,DOE-2,1666.71,2234.28,1563.99,670.28,6,1,0,Yes
 Zone Information, THERMAL ZONE 31,0.0,555.57,3.00,28.00,557.08,279.28,30.00,1,1,1,555.57,558.57,0.00,558.57,28.00,32.00,4.00,6666.84,TARP,DOE-2,1666.71,2234.28,1563.99,670.28,6,1,0,Yes
 Zone Information, THERMAL ZONE 11,0.0,0.00,0.00,0.00,1.49,279.28,2.00,1,1,1,0.00,3.00,0.00,558.57,0.00,4.00,4.00,6666.84,TARP,DOE-2,1666.71,2234.28,1563.99,670.28,6,1,0,Yes
 Zone Information, THERMAL ZONE 42,0.0,555.57,3.00,16.00,557.08,279.28,18.00,1,1,1,555.57,558.57,0.00,558.57,16.00,20.00,4.00,6666.84,TARP,DOE-2,1666.71,2234.28,1563.99,670.28,6,1,0,Yes
 Zone Information, THERMAL ZONE 21,0.0,555.57,3.00,20.00,557.08,279.28,22.00,1,1,1,555.57,558.57,0.00,558.57,20.00,24.00,4.00,6666.84,TARP,DOE-2,1666.71,2234.28,1563.99,670.28,6,1,0,Yes
 Zone Information, THERMAL ZONE 16,0.0,0.00,0.00,8.00,279.28,1.49,10.00,1,1,1,0.00,558.57,0.00,3.00,8.00,12.00,4.00,6666.84,TARP,DOE-2,1666.71,2234.28,1563.99,670.28,6,1,0,Yes
 Zone Information, THERMAL ZONE 33,0.0,3.00,3.00,8.00,279.28,279.28,10.00,1,1,1,3.00,555.57,3.00,555.57,8.00,12.00,4.00,1221332.66,TARP,DOE-2,305333.16,0.00,0.00,0.00,6,0,0,Yes
 Zone Information, THERMAL ZONE 17,0.0,555.57,3.00,24.00,557.08,279.28,26.00,1,1,1,555.57,558.57,0.00,558.57,24.00,28.00,4.00,6666.84,TARP,DOE-2,1666.71,2234.28,1563.99,670.28,6,1,0,Yes
 Zone Information, THERMAL ZONE 38,0.0,555.57,3.00,32.00,557.08,279.28,34.00,1,1,1,555.57,558.57,0.00,558.57,32.00,36.00,4.00,6666.84,TARP,DOE-2,1666.71,2234.28,1563.99,670.28,6,1,0,Yes
 Zone Information, THERMAL ZONE 27,0.0,3.00,555.57,12.00,279.28,557.08,14.00,1,1,1,0.00,558.57,555.57,558.57,12.00,16.00,4.00,6666.84,TARP,DOE-2,1666.71,2234.28,1563.99,670.28,6,1,0,Yes
 Zone Information, THERMAL ZONE 24,0.0,0.00,0.00,12.00,279.28,1.49,14.00,1,1,1,0.00,558.57,0.00,3.00,12.00,16.00,4.00,6666.84,TARP,DOE-2,1666.71,2234.28,1563.99,670.28,6,1,0,Yes
 Zone Information, THERMAL ZONE 26,0.0,3.00,3.00,4.00,279.28,279.28,6.00,1,1,1,3.00,555.57,3.00,555.57,4.00,8.00,4.00,1221332.66,TARP,DOE-2,305333.16,0.00,0.00,0.00,6,0,0,Yes
 Zone Information, THERMAL ZONE 19,0.0,3.00,3.00,20.00,279.28,279.28,22.00,1,1,1,3.00,555.57,3.00,555.57,20.00,24.00,4.00,1221332.66,TARP,DOE-2,305333.16,0.00,0.00,0.00,6,0,0,Yes
 Zone Information, THERMAL ZONE 8,0.0,3.00,555.57,24.00,279.28,557.08,26.00,1,1,1,0.00,558.57,555.57,558.57,24.00,28.00,4.00,6666.84,TARP,DOE-2,1666.71,2234.28,1563.99,670.28,6,1,0,Yes
 Zone Information, THERMAL ZONE 18,0.0,0.00,0.00,28.00,279.28,1.49,30.00,1,1,1,0.00,558.57,0.00,3.00,28.00,32.00,4.00,6666.84,TARP,DOE-2,1666.71,2234.28,1563.99,670.28,6,1,0,Yes
 Zone Information, THERMAL ZONE 37,0.0,555.57,3.00,4.00,557.08,279.28,6.00,1,1,1,555.57,558.57,0.00,558.57,4.00,8.00,4.00,6666.84,TARP,DOE-2,1666.71,2234.28,1563.99,670.28,6,1,0,Yes
 Zone Information, THERMAL ZONE 3,0.0,0.00,0.00,24.00,1.49,279.28,26.00,1,1,1,0.00,3.00,0.00,558.57,24.00,28.00,4.00,6666.84,TARP,DOE-2,1666.71,2234.28,1563.99,670.28,6,1,0,Yes
 Zone Information, THERMAL ZONE 43,0.0,3.00,555.57,0.00,279.28,557.08,2.00,1,1,1,0.00,558.57,555.57,558.57,0.00,4.00,4.00,6666.84,TARP,DOE-2,1666.71,2234.28,1563.99,670.28,6,1,0,Yes
 Zone Information, THERMAL ZONE 5,0.0,0.00,0.00,20.00,1.49,279.28,22.00,1,1,1,0.00,3.00,0.00,558.57,20.00,24.00,4.00,6666.84,TARP,DOE-2,1666.71,2234.28,1563.99,670.28,6,1,0,Yes
 Zone Information, THERMAL ZONE 10,0.0,0.00,0.00,4.00,1.49,279.28,6.00,1,1,1,0.00,3.00,0.00,558.57,4.00,8.00,4.00,6666.84,TARP,DOE-2,1666.71,2234.28,1563.99,670.28,6,1,0,Yes
 Zone Information, THERMAL ZONE 12,0.0,0.00,0.00,20.00,279.28,1.49,22.00,1,1,1,0.00,558.57,0.00,3.00,20.00,24.00,4.00,6666.84,TARP,DOE-2,1666.71,2234.28,1563.99,670.28,6,1,0,Yes
 Zone Information, THERMAL ZONE 34,0.0,3.00,3.00,16.00,279.28,279.28,18.00,1,1,1,3.00,555.57,3.00,555.57,16.00,20.00,4.00,1221332.66,TARP,DOE-2,305333.16,0.00,0.00,0.00,6,0,0,Yes
 Zone Information, THERMAL ZONE 44,0.0,3.00,3.00,28.00,279.28,279.28,30.00,1,1,1,3.00,555.57,3.00,555.57,28.00,32.00,4.00,1221332.66,TARP,DOE-2,305333.16,0.00,0.00,0.00,6,0,0,Yes
! <Zone Internal Gains/Equipment Information - Nominal>,Zone Name, Floor Area {m2},# Occupants,Area per Occupant {m2/person},Occupant per Area {person/m2},Interior Lighting {W/m2},Electric Load {W/m2},Gas Load {W/m2},Other Load {W/m2},Hot Water Eq {W/m2},Steam Equipment {W/m2},Sum Loads per Area {W/m2},Outdoor Controlled Baseboard Heat
 Zone Internal Gains, THERMAL ZONE 32,1666.71,0.0,N/A,0.000,0.000,0.000,0.000,0.000,0.000,0.000,0.000,No
 Zone Internal Gains, THERMAL ZONE 20,1666.71,0.0,N/A,0.000,0.000,0.000,0.000,0.000,0.000,0.000,0.000,No
 Zone Internal Gains, THERMAL ZONE 39,1666.71,0.0,N/A,0.000,0.000,0.000,0.000,0.000,0.000,0.000,0.000,No
 Zone Internal Gains, THERMAL ZONE 6,1666.71,0.0,N/A,0.000,0.000,0.000,0.000,0.000,0.000,0.000,0.000,No
 Zone Internal Gains, THERMAL ZONE 40,1666.71,0.0,N/A,0.000,0.000,0.000,0.000,0.000,0.000,0.000,0.000,No
 Zone Internal Gains, THERMAL ZONE 1,1666.71,0.0,N/A,0.000,0.000,0.000,0.000,0.000,0.000,0.000,0.000,No
 Zone Internal Gains, THERMAL ZONE 2,1666.71,0.0,N/A,0.000,0.000,0.000,0.000,0.000,0.000,0.000,0.000,No
 Zone Internal Gains, THERMAL ZONE 23,305333.16,0.0,N/A,0.000,0.000,0.000,0.000,0.000,0.000,0.000,0.000,No
 Zone Internal Gains, THERMAL ZONE 25,1666.71,0.0,N/A,0.000,0.000,0.000,0.000,0.000,0.000,0.000,0.000,No
 Zone Internal Gains, THERMAL ZONE 28,305333.16,0.0,N/A,0.000,0.000,0.000,0.000,0.000,0.000,0.000,0.000,No
 Zone Internal Gains, THERMAL ZONE 30,1666.71,0.0,N/A,0.000,0.000,0.000,0.000,0.000,0.000,0.000,0.000,No
 Zone Internal Gains, THERMAL ZONE 13,305333.16,0.0,N/A,0.000,0.000,0.000,0.000,0.000,0.000,0.000,0.000,No
 Zone Internal Gains, THERMAL ZONE 35,1666.71,0.0,N/A,0.000,0.000,0.000,0.000,0.000,0.000,0.000,0.000,No
 Zone Internal Gains, THERMAL ZONE 36,305333.16,0.0,N/A,0.000,0.000,0.000,0.000,0.000,0.000,0.000,0.000,No
 Zone Internal Gains, THERMAL ZONE 15,1666.71,0.0,N/A,0.000,0.000,0.000,0.000,0.000,0.000,0.000,0.000,No
 Zone Internal Gains, THERMAL ZONE 29,1666.71,0.0,N/A,0.000,0.000,0.000,0.000,0.000,0.000,0.000,0.000,No
 Zone Internal Gains, THERMAL ZONE 22,1666.71,0.0,N/A,0.000,0.000,0.000,0.000,0.000,0.000,0.000,0.000,No
 Zone Internal Gains, THERMAL ZONE 14,1666.71,0.0,N/A,0.000,0.000,0.000,0.000,0.000,0.000,0.000,0.000,No
 Zone Internal Gains, THERMAL ZONE 7,1666.71,0.0,N/A,0.000,0.000,0.000,0.000,0.000,0.000,0.000,0.000,No
 Zone Internal Gains, THERMAL ZONE 9,1666.71,0.0,N/A,0.000,0.000,0.000,0.000,0.000,0.000,0.000,0.000,No
 Zone Internal Gains, THERMAL ZONE 4,1666.71,0.0,N/A,0.000,0.000,0.000,0.000,0.000,0.000,0.000,0.000,No
 Zone Internal Gains, THERMAL ZONE 41,1666.71,0.0,N/A,0.000,0.000,0.000,0.000,0.000,0.000,0.000,0.000,No
 Zone Internal Gains, THERMAL ZONE 45,1666.71,0.0,N/A,0.000,0.000,0.000,0.000,0.000,0.000,0.000,0.000,No
 Zone Internal Gains, THERMAL ZONE 31,1666.71,0.0,N/A,0.000,0.000,0.000,0.000,0.000,0.000,0.000,0.000,No
 Zone Internal Gains, THERMAL ZONE 11,1666.71,0.0,N/A,0.000,0.000,0.000,0.000,0.000,0.000,0.000,0.000,No
 Zone Internal Gains, THERMAL ZONE 42,1666.71,0.0,N/A,0.000,0.000,0.000,0.000,0.000,0.000,0.000,0.000,No
 Zone Internal Gains, THERMAL ZONE 21,1666.71,0.0,N/A,0.000,0.000,0.000,0.000,0.000,0.000,0.000,0.000,No
 Zone Internal Gains, THERMAL ZONE 16,1666.71,0.0,N/A,0.000,0.000,0.000,0.000,0.000,0.000,0.000,0.000,No
 Zone Internal Gains, THERMAL ZONE 33,305333.16,0.0,N/A,0.000,0.000,0.000,0.000,0.000,0.000,0.000,0.000,No
 Zone Internal Gains, THERMAL ZONE 17,1666.71,0.0,N/A,0.000,0.000,0.000,0.000,0.000,0.000,0.000,0.000,No
 Zone Internal Gains, THERMAL ZONE 38,1666.71,0.0,N/A,0.000,0.000,0.000,0.000,0.000,0.000,0.000,0.000,No
 Zone Internal Gains, THERMAL ZONE 27,1666.71,0.0,N/A,0.000,0.000,0.000,0.000,0.000,0.000,0.000,0.000,No
 Zone Internal Gains, THERMAL ZONE 24,1666.71,0.0,N/A,0.000,0.000,0.000,0.000,0.000,0.000,0.000,0.000,No
 Zone Internal Gains, THERMAL ZONE 26,305333.16,0.0,N/A,0.000,0.000,0.000,0.000,0.000,0.000,0.000,0.000,No
 Zone Internal Gains, THERMAL ZONE 19,305333.16,0.0,N/A,0.000,0.000,0.000,0.000,0.000,0.000,0.000,0.000,No
 Zone Internal Gains, THERMAL ZONE 8,1666.71,0.0,N/A,0.000,0.000,0.000,0.000,0.000,0.000,0.000,0.000,No
 Zone Internal Gains, THERMAL ZONE 18,1666.71,0.0,N/A,0.000,0.000,0.000,0.000,0.000,0.000,0.000,0.000,No
 Zone Internal Gains, THERMAL ZONE 37,1666.71,0.0,N/A,0.000,0.000,0.000,0.000,0.000,0.000,0.000,0.000,No
 Zone Internal Gains, THERMAL ZONE 3,1666.71,0.0,N/A,0.000,0.000,0.000,0.000,0.000,0.000,0.000,0.000,No
 Zone Internal Gains, THERMAL ZONE 43,1666.71,0.0,N/A,0.000,0.000,0.000,0.000,0.000,0.000,0.000,0.000,No
 Zone Internal Gains, THERMAL ZONE 5,1666.71,0.0,N/A,0.000,0.000,0.000,0.000,0.000,0.000,0.000,0.000,No
 Zone Internal Gains, THERMAL ZONE 10,1666.71,0.0,N/A,0.000,0.000,0.000,0.000,0.000,0.000,0.000,0.000,No
 Zone Internal Gains, THERMAL ZONE 12,1666.71,0.0,N/A,0.000,0.000,0.000,0.000,0.000,0.000,0.000,0.000,No
 Zone Internal Gains, THERMAL ZONE 34,305333.16,0.0,N/A,0.000,0.000,0.000,0.000,0.000,0.000,0.000,0.000,No
 Zone Internal Gains, THERMAL ZONE 44,305333.16,0.0,N/A,0.000,0.000,0.000,0.000,0.000,0.000,0.000,0.000,No
! <Shadowing/Sun Position Calculations> [Annual Simulations], Value {days}, Allowable Number Figures in Shadow Overlap {}, Polygon Clipping Algorithm, Sky Diffuse Modeling Algorithm
Shadowing/Sun Position Calculations,20,15000,SutherlandHodgman,SimpleSkyDiffuseModeling
! <RoomAir Model>, Zone Name, Mixing/Mundt/UCSDDV/UCSDCV/UCSDUFI/UCSDUFE/User Defined
RoomAir Model,THERMAL ZONE 32,Mixing/Well-Stirred
RoomAir Model,THERMAL ZONE 20,Mixing/Well-Stirred
RoomAir Model,THERMAL ZONE 39,Mixing/Well-Stirred
RoomAir Model,THERMAL ZONE 6,Mixing/Well-Stirred
RoomAir Model,THERMAL ZONE 40,Mixing/Well-Stirred
RoomAir Model,THERMAL ZONE 1,Mixing/Well-Stirred
RoomAir Model,THERMAL ZONE 2,Mixing/Well-Stirred
RoomAir Model,THERMAL ZONE 23,Mixing/Well-Stirred
RoomAir Model,THERMAL ZONE 25,Mixing/Well-Stirred
RoomAir Model,THERMAL ZONE 28,Mixing/Well-Stirred
RoomAir Model,THERMAL ZONE 30,Mixing/Well-Stirred
RoomAir Model,THERMAL ZONE 13,Mixing/Well-Stirred
RoomAir Model,THERMAL ZONE 35,Mixing/Well-Stirred
RoomAir Model,THERMAL ZONE 36,Mixing/Well-Stirred
RoomAir Model,THERMAL ZONE 15,Mixing/Well-Stirred
RoomAir Model,THERMAL ZONE 29,Mixing/Well-Stirred
RoomAir Model,THERMAL ZONE 22,Mixing/Well-Stirred
RoomAir Model,THERMAL ZONE 14,Mixing/Well-Stirred
RoomAir Model,THERMAL ZONE 7,Mixing/Well-Stirred
RoomAir Model,THERMAL ZONE 9,Mixing/Well-Stirred
RoomAir Model,THERMAL ZONE 4,Mixing/Well-Stirred
RoomAir Model,THERMAL ZONE 41,Mixing/Well-Stirred
RoomAir Model,THERMAL ZONE 45,Mixing/Well-Stirred
RoomAir Model,THERMAL ZONE 31,Mixing/Well-Stirred
RoomAir Model,THERMAL ZONE 11,Mixing/Well-Stirred
RoomAir Model,THERMAL ZONE 42,Mixing/Well-Stirred
RoomAir Model,THERMAL ZONE 21,Mixing/Well-Stirred
RoomAir Model,THERMAL ZONE 16,Mixing/Well-Stirred
RoomAir Model,THERMAL ZONE 33,Mixing/Well-Stirred
RoomAir Model,THERMAL ZONE 17,Mixing/Well-Stirred
RoomAir Model,THERMAL ZONE 38,Mixing/Well-Stirred
RoomAir Model,THERMAL ZONE 27,Mixing/Well-Stirred
RoomAir Model,THERMAL ZONE 24,Mixing/Well-Stirred
RoomAir Model,THERMAL ZONE 26,Mixing/Well-Stirred
RoomAir Model,THERMAL ZONE 19,Mixing/Well-Stirred
RoomAir Model,THERMAL ZONE 8,Mixing/Well-Stirred
RoomAir Model,THERMAL ZONE 18,Mixing/Well-Stirred
RoomAir Model,THERMAL ZONE 37,Mixing/Well-Stirred
RoomAir Model,THERMAL ZONE 3,Mixing/Well-Stirred
RoomAir Model,THERMAL ZONE 43,Mixing/Well-Stirred
RoomAir Model,THERMAL ZONE 5,Mixing/Well-Stirred
RoomAir Model,THERMAL ZONE 10,Mixing/Well-Stirred
RoomAir Model,THERMAL ZONE 12,Mixing/Well-Stirred
RoomAir Model,THERMAL ZONE 34,Mixing/Well-Stirred
RoomAir Model,THERMAL ZONE 44,Mixing/Well-Stirred
! <AirflowNetwork Model:Control>, No Multizone or Distribution/Multizone with Distribution/Multizone without Distribution/Multizone with Distribution only during Fan Operation
AirflowNetwork Model:Control,NoMultizoneOrDistribution
! <Zone Volume Capacitance Multiplier>, Sensible Heat Capacity Multiplier, Moisture Capacity Multiplier, Carbon Dioxide Capacity Multiplier, Generic Contaminant Capacity Multiplier
Zone Volume Capacitance Multiplier,   1.000 ,   1.000,   1.000,   1.000
! <Load Timesteps in Zone Design Calculation Averaging Window>, Value
 Load Timesteps in Zone Design Calculation Averaging Window,    4
! <Heating Sizing Factor Information>, Sizing Factor ID, Value
 Heating Sizing Factor Information, Global,   1.2500    
 Heating Sizing Factor Information, Zone THERMAL ZONE 32,   1.2500    
 Heating Sizing Factor Information, Zone THERMAL ZONE 20,   1.2500    
 Heating Sizing Factor Information, Zone THERMAL ZONE 39,   1.2500    
 Heating Sizing Factor Information, Zone THERMAL ZONE 6,   1.2500    
 Heating Sizing Factor Information, Zone THERMAL ZONE 40,   1.2500    
 Heating Sizing Factor Information, Zone THERMAL ZONE 1,   1.2500    
 Heating Sizing Factor Information, Zone THERMAL ZONE 2,   1.2500    
 Heating Sizing Factor Information, Zone THERMAL ZONE 23,   1.2500    
 Heating Sizing Factor Information, Zone THERMAL ZONE 25,   1.2500    
 Heating Sizing Factor Information, Zone THERMAL ZONE 28,   1.2500    
 Heating Sizing Factor Information, Zone THERMAL ZONE 30,   1.2500    
 Heating Sizing Factor Information, Zone THERMAL ZONE 13,   1.2500    
 Heating Sizing Factor Information, Zone THERMAL ZONE 35,   1.2500    
 Heating Sizing Factor Information, Zone THERMAL ZONE 36,   1.2500    
 Heating Sizing Factor Information, Zone THERMAL ZONE 15,   1.2500    
 Heating Sizing Factor Information, Zone THERMAL ZONE 29,   1.2500    
 Heating Sizing Factor Information, Zone THERMAL ZONE 22,   1.2500    
 Heating Sizing Factor Information, Zone THERMAL ZONE 14,   1.2500    
 Heating Sizing Factor Information, Zone THERMAL ZONE 7,   1.2500    
 Heating Sizing Factor Information, Zone THERMAL ZONE 9,   1.2500    
 Heating Sizing Factor Information, Zone THERMAL ZONE 4,   1.2500    
 Heating Sizing Factor Information, Zone THERMAL ZONE 41,   1.2500    
 Heating Sizing Factor Information, Zone THERMAL ZONE 45,   1.2500    
 Heating Sizing Factor Information, Zone THERMAL ZONE 31,   1.2500    
 Heating Sizing Factor Information, Zone THERMAL ZONE 11,   1.2500    
 Heating Sizing Factor Information, Zone THERMAL ZONE 42,   1.2500    
 Heating Sizing Factor Information, Zone THERMAL ZONE 21,   1.2500    
 Heating Sizing Factor Information, Zone THERMAL ZONE 16,   1.2500    
 Heating Sizing Factor Information, Zone THERMAL ZONE 33,   1.2500    
 Heating Sizing Factor Information, Zone THERMAL ZONE 17,   1.2500    
 Heating Sizing Factor Information, Zone THERMAL ZONE 38,   1.2500    
 Heating Sizing Factor Information, Zone THERMAL ZONE 27,   1.2500    
 Heating Sizing Factor Information, Zone THERMAL ZONE 24,   1.2500    
 Heating Sizing Factor Information, Zone THERMAL ZONE 26,   1.2500    
 Heating Sizing Factor Information, Zone THERMAL ZONE 19,   1.2500    
 Heating Sizing Factor Information, Zone THERMAL ZONE 8,   1.2500    
 Heating Sizing Factor Information, Zone THERMAL ZONE 18,   1.2500    
 Heating Sizing Factor Information, Zone THERMAL ZONE 37,   1.2500    
 Heating Sizing Factor Information, Zone THERMAL ZONE 3,   1.2500    
 Heating Sizing Factor Information, Zone THERMAL ZONE 43,   1.2500    
 Heating Sizing Factor Information, Zone THERMAL ZONE 5,   1.2500    
 Heating Sizing Factor Information, Zone THERMAL ZONE 10,   1.2500    
 Heating Sizing Factor Information, Zone THERMAL ZONE 12,   1.2500    
 Heating Sizing Factor Information, Zone THERMAL ZONE 34,   1.2500    
 Heating Sizing Factor Information, Zone THERMAL ZONE 44,   1.2500    
! <Cooling Sizing Factor Information>, Sizing Factor ID, Value
 Cooling Sizing Factor Information, Global,   1.1500    
 Cooling Sizing Factor Information, Zone THERMAL ZONE 32,   1.1500    
 Cooling Sizing Factor Information, Zone THERMAL ZONE 20,   1.1500    
 Cooling Sizing Factor Information, Zone THERMAL ZONE 39,   1.1500    
 Cooling Sizing Factor Information, Zone THERMAL ZONE 6,   1.1500    
 Cooling Sizing Factor Information, Zone THERMAL ZONE 40,   1.1500    
 Cooling Sizing Factor Information, Zone THERMAL ZONE 1,   1.1500    
 Cooling Sizing Factor Information, Zone THERMAL ZONE 2,   1.1500    
 Cooling Sizing Factor Information, Zone THERMAL ZONE 23,   1.1500    
 Cooling Sizing Factor Information, Zone THERMAL ZONE 25,   1.1500    
 Cooling Sizing Factor Information, Zone THERMAL ZONE 28,   1.1500    
 Cooling Sizing Factor Information, Zone THERMAL ZONE 30,   1.1500    
 Cooling Sizing Factor Information, Zone THERMAL ZONE 13,   1.1500    
 Cooling Sizing Factor Information, Zone THERMAL ZONE 35,   1.1500    
 Cooling Sizing Factor Information, Zone THERMAL ZONE 36,   1.1500    
 Cooling Sizing Factor Information, Zone THERMAL ZONE 15,   1.1500    
 Cooling Sizing Factor Information, Zone THERMAL ZONE 29,   1.1500    
 Cooling Sizing Factor Information, Zone THERMAL ZONE 22,   1.1500    
 Cooling Sizing Factor Information, Zone THERMAL ZONE 14,   1.1500    
 Cooling Sizing Factor Information, Zone THERMAL ZONE 7,   1.1500    
 Cooling Sizing Factor Information, Zone THERMAL ZONE 9,   1.1500    
 Cooling Sizing Factor Information, Zone THERMAL ZONE 4,   1.1500    
 Cooling Sizing Factor Information, Zone THERMAL ZONE 41,   1.1500    
 Cooling Sizing Factor Information, Zone THERMAL ZONE 45,   1.1500    
 Cooling Sizing Factor Information, Zone THERMAL ZONE 31,   1.1500    
 Cooling Sizing Factor Information, Zone THERMAL ZONE 11,   1.1500    
 Cooling Sizing Factor Information, Zone THERMAL ZONE 42,   1.1500    
 Cooling Sizing Factor Information, Zone THERMAL ZONE 21,   1.1500    
 Cooling Sizing Factor Information, Zone THERMAL ZONE 16,   1.1500    
 Cooling Sizing Factor Information, Zone THERMAL ZONE 33,   1.1500    
 Cooling Sizing Factor Information, Zone THERMAL ZONE 17,   1.1500    
 Cooling Sizing Factor Information, Zone THERMAL ZONE 38,   1.1500    
 Cooling Sizing Factor Information, Zone THERMAL ZONE 27,   1.1500    
 Cooling Sizing Factor Information, Zone THERMAL ZONE 24,   1.1500    
 Cooling Sizing Factor Information, Zone THERMAL ZONE 26,   1.1500    
 Cooling Sizing Factor Information, Zone THERMAL ZONE 19,   1.1500    
 Cooling Sizing Factor Information, Zone THERMAL ZONE 8,   1.1500    
 Cooling Sizing Factor Information, Zone THERMAL ZONE 18,   1.1500    
 Cooling Sizing Factor Information, Zone THERMAL ZONE 37,   1.1500    
 Cooling Sizing Factor Information, Zone THERMAL ZONE 3,   1.1500    
 Cooling Sizing Factor Information, Zone THERMAL ZONE 43,   1.1500    
 Cooling Sizing Factor Information, Zone THERMAL ZONE 5,   1.1500    
 Cooling Sizing Factor Information, Zone THERMAL ZONE 10,   1.1500    
 Cooling Sizing Factor Information, Zone THERMAL ZONE 12,   1.1500    
 Cooling Sizing Factor Information, Zone THERMAL ZONE 34,   1.1500    
 Cooling Sizing Factor Information, Zone THERMAL ZONE 44,   1.1500    
! <Zone Sizing Information>, Zone Name, Load Type, Calc Des Load {W}, User Des Load {W}, Calc Des Air Flow Rate {m3/s}, User Des Air Flow Rate {m3/s}, Design Day Name, Date/Time of Peak, Temperature at Peak {C}, Humidity Ratio at Peak {kgWater/kgDryAir}, Floor Area {m2}, # Occupants, Calc Outdoor Air Flow Rate {m3/s}
 Zone Sizing Information, THERMAL ZONE 32, Cooling, 58783.64266, 67601.18906, 3.41681, 3.92933, SAN FRANCISCO INTL AP ANN CLG .4% CONDNS DB=>MWB, 8/21 15:00:00, 28.30000, 7.71372E-003, 1666.70881, 0.00000, 0.00000
 Zone Sizing Information, THERMAL ZONE 32, Heating, 35475.53309, 44344.41637, 1.80591, 2.25739, SAN FRANCISCO INTL AP ANN HTG 99.6% CONDNS DB, 1/21 01:00:00, 3.80000, 4.96421E-003, 1666.70881, 0.00000, 0.00000
 Zone Sizing Information, THERMAL ZONE 20, Cooling, 67869.16965, 78049.54510, 3.94491, 4.53664, SAN FRANCISCO INTL AP ANN CLG .4% CONDNS DB=>MWB, 8/21 11:00:00, 26.34500, 7.71372E-003, 1666.70881, 0.00000, 0.00000
 Zone Sizing Information, THERMAL ZONE 20, Heating, 34094.59830, 42618.24787, 1.73561, 2.16952, SAN FRANCISCO INTL AP ANN HTG 99.6% CONDNS DB, 1/21 01:00:00, 3.80000, 4.96421E-003, 1666.70881, 0.00000, 0.00000
 Zone Sizing Information, THERMAL ZONE 39, Cooling, 73127.20722, 84096.28830, 4.25053, 4.88811, SAN FRANCISCO INTL AP ANN CLG .4% CONDNS DB=>MWB, 8/21 14:45:00, 28.30000, 7.71372E-003, 1666.70881, 0.00000, 0.00000
 Zone Sizing Information, THERMAL ZONE 39, Heating, 34286.18806, 42857.73508, 1.74537, 2.18171, SAN FRANCISCO INTL AP ANN HTG 99.6% CONDNS DB, 1/21 01:00:00, 3.80000, 4.96421E-003, 1666.70881, 0.00000, 0.00000
 Zone Sizing Information, THERMAL ZONE 6, Cooling, 70225.12298, 80758.89142, 4.08185, 4.69412, SAN FRANCISCO INTL AP ANN CLG .4% CONDNS DB=>MWB, 8/21 14:45:00, 28.30000, 7.71372E-003, 1666.70881, 0.00000, 0.00000
 Zone Sizing Information, THERMAL ZONE 6, Heating, 33895.80878, 42369.76098, 1.72550, 2.15687, SAN FRANCISCO INTL AP ANN HTG 99.6% CONDNS DB, 1/21 01:00:00, 3.80000, 4.96421E-003, 1666.70881, 0.00000, 0.00000
 Zone Sizing Information, THERMAL ZONE 40, Heating, 35472.85930, 44341.07413, 1.80578, 2.25722, SAN FRANCISCO INTL AP ANN HTG 99.6% CONDNS DB, 1/21 01:00:00, 3.80000, 4.96421E-003, 1666.70881, 0.00000, 0.00000
 Zone Sizing Information, THERMAL ZONE 1, Cooling, 5910.13101, 6796.65066, 0.34353, 0.39506, SAN FRANCISCO INTL AP ANN CLG .4% CONDNS DB=>MWB, 8/21 15:45:00, 27.91750, 7.71373E-003, 1666.70881, 0.00000, 0.00000
 Zone Sizing Information, THERMAL ZONE 1, Heating, 35152.88457, 43941.10571, 1.78949, 2.23686, SAN FRANCISCO INTL AP ANN HTG 99.6% CONDNS DB, 1/21 01:00:00, 3.80000, 4.96421E-003, 1666.70881, 0.00000, 0.00000
 Zone Sizing Information, THERMAL ZONE 2, Cooling, 2013.06647, 2315.02645, 0.11701, 0.13456, SAN FRANCISCO INTL AP ANN CLG .4% CONDNS DB=>MWB, 8/21 16:00:00, 27.79000, 7.71372E-003, 1666.70881, 0.00000, 0.00000
 Zone Sizing Information, THERMAL ZONE 2, Heating, 33811.52535, 42264.40668, 1.72120, 2.15151, SAN FRANCISCO INTL AP ANN HTG 99.6% CONDNS DB, 1/21 01:00:00, 3.80000, 4.96421E-003, 1666.70881, 0.00000, 0.00000
 Zone Sizing Information, THERMAL ZONE 23, Heating, 86397.85699, 107997.32123, 4.39816, 5.49770, SAN FRANCISCO INTL AP ANN HTG 99.6% CONDNS DB, 1/21 01:00:00, 3.80000, 4.96421E-003, 305333.16478, 0.00000, 0.00000
 Zone Sizing Information, THERMAL ZONE 25, Cooling, 3646.31798, 4193.26567, 0.21194, 0.24373, SAN FRANCISCO INTL AP ANN CLG .4% CONDNS DB=>MWB, 8/21 16:00:00, 27.79000, 7.71372E-003, 1666.70881, 0.00000, 0.00000
 Zone Sizing Information, THERMAL ZONE 25, Heating, 33909.46535, 42386.83169, 1.72619, 2.15774, SAN FRANCISCO INTL AP ANN HTG 99.6% CONDNS DB, 1/21 01:00:00, 3.80000, 4.96421E-003, 1666.70881, 0.00000, 0.00000
 Zone Sizing Information, THERMAL ZONE 28, Heating, 1237317.29196, 1546646.61495, 62.98670, 78.73338, SAN FRANCISCO INTL AP ANN HTG 99.6% CONDNS DB, 1/21 01:00:00, 3.80000, 4.96421E-003, 305333.16478, 0.00000, 0.00000
 Zone Sizing Information, THERMAL ZONE 30, Heating, 34056.17175, 42570.21469, 1.73366, 2.16707, SAN FRANCISCO INTL AP ANN HTG 99.6% CONDNS DB, 1/21 01:00:00, 3.80000, 4.96421E-003, 1666.70881, 0.00000, 0.00000
 Zone Sizing Information, THERMAL ZONE 13, Heating, 2338196.18564, 2922745.23205, 119.02790, 148.78487, SAN FRANCISCO INTL AP ANN HTG 99.6% CONDNS DB, 1/21 01:00:00, 3.80000, 4.96421E-003, 305333.16478, 0.00000, 0.00000
 Zone Sizing Information, THERMAL ZONE 35, Cooling, 35858.85731, 41237.68591, 2.08427, 2.39692, SAN FRANCISCO INTL AP ANN CLG .4% CONDNS DB=>MWB, 8/21 10:00:00, 25.07000, 7.71372E-003, 1666.70881, 0.00000, 0.00000
 Zone Sizing Information, THERMAL ZONE 35, Heating, 47828.59375, 59785.74218, 2.43476, 3.04344, SAN FRANCISCO INTL AP ANN HTG 99.6% CONDNS DB, 1/21 01:00:00, 3.80000, 4.96421E-003, 1666.70881, 0.00000, 0.00000
 Zone Sizing Information, THERMAL ZONE 36, Heating, 54475.68991, 68094.61239, 2.77313, 3.46641, SAN FRANCISCO INTL AP ANN HTG 99.6% CONDNS DB, 1/21 01:00:00, 3.80000, 4.96421E-003, 305333.16478, 0.00000, 0.00000
 Zone Sizing Information, THERMAL ZONE 15, Cooling, 84863.66854, 97593.21882, 4.93271, 5.67262, SAN FRANCISCO INTL AP ANN CLG .4% CONDNS DB=>MWB, 8/21 17:45:00, 26.47250, 7.71372E-003, 1666.70881, 0.00000, 0.00000
 Zone Sizing Information, THERMAL ZONE 15, Heating, 34056.17175, 42570.21469, 1.73366, 2.16707, SAN FRANCISCO INTL AP ANN HTG 99.6% CONDNS DB, 1/21 01:00:00, 3.80000, 4.96421E-003, 1666.70881, 0.00000, 0.00000
 Zone Sizing Information, THERMAL ZONE 29, Cooling, 70904.94723, 81540.68931, 4.12136, 4.73956, SAN FRANCISCO INTL AP ANN CLG .4% CONDNS DB=>MWB, 8/21 14:45:00, 28.30000, 7.71372E-003, 1666.70881, 0.00000, 0.00000
 Zone Sizing Information, THERMAL ZONE 29, Heating, 42718.16061, 53397.70076, 2.17460, 2.71826, SAN FRANCISCO INTL AP ANN HTG 99.6% CONDNS DB, 1/21 01:00:00, 3.80000, 4.96421E-003, 1666.70881, 0.00000, 0.00000
 Zone Sizing Information, THERMAL ZONE 22, Cooling, 88134.87786, 101355.10954, 5.12285, 5.89128, SAN FRANCISCO INTL AP ANN CLG .4% CONDNS DB=>MWB, 8/21 17:45:00, 26.47250, 7.71372E-003, 1666.70881, 0.00000, 0.00000
 Zone Sizing Information, THERMAL ZONE 22, Heating, 33814.88764, 42268.60954, 1.72138, 2.15172, SAN FRANCISCO INTL AP ANN HTG 99.6% CONDNS DB, 1/21 01:00:00, 3.80000, 4.96421E-003, 1666.70881, 0.00000, 0.00000
 Zone Sizing Information, THERMAL ZONE 14, Cooling, 71168.64852, 81843.94580, 4.13669, 4.75719, SAN FRANCISCO INTL AP ANN CLG .4% CONDNS DB=>MWB, 8/21 10:45:00, 26.02625, 7.71373E-003, 1666.70881, 0.00000, 0.00000
 Zone Sizing Information, THERMAL ZONE 14, Heating, 33878.99464, 42348.74330, 1.72464, 2.15580, SAN FRANCISCO INTL AP ANN HTG 99.6% CONDNS DB, 1/21 01:00:00, 3.80000, 4.96421E-003, 1666.70881, 0.00000, 0.00000
 Zone Sizing Information, THERMAL ZONE 7, Cooling, 90257.10195, 103795.66724, 5.24621, 6.03314, SAN FRANCISCO INTL AP ANN CLG .4% CONDNS DB=>MWB, 8/21 17:45:00, 26.47250, 7.71372E-003, 1666.70881, 0.00000, 0.00000
 Zone Sizing Information, THERMAL ZONE 7, Heating, 33811.52535, 42264.40668, 1.72120, 2.15151, SAN FRANCISCO INTL AP ANN HTG 99.6% CONDNS DB, 1/21 01:00:00, 3.80000, 4.96421E-003, 1666.70881, 0.00000, 0.00000
 Zone Sizing Information, THERMAL ZONE 9, Cooling, 92223.09564, 106056.55998, 5.36048, 6.16455, SAN FRANCISCO INTL AP ANN CLG .4% CONDNS DB=>MWB, 8/21 17:45:00, 26.47250, 7.71372E-003, 1666.70881, 0.00000, 0.00000
 Zone Sizing Information, THERMAL ZONE 9, Heating, 42585.03623, 53231.29529, 2.16783, 2.70979, SAN FRANCISCO INTL AP ANN HTG 99.6% CONDNS DB, 1/21 01:00:00, 3.80000, 4.96421E-003, 1666.70881, 0.00000, 0.00000
 Zone Sizing Information, THERMAL ZONE 4, Cooling, 28365.21432, 32619.99646, 1.64872, 1.89603, SAN FRANCISCO INTL AP ANN CLG .4% CONDNS DB=>MWB, 8/21 14:00:00, 28.30000, 7.71372E-003, 1666.70881, 0.00000, 0.00000
 Zone Sizing Information, THERMAL ZONE 4, Heating, 47828.59375, 59785.74218, 2.43476, 3.04344, SAN FRANCISCO INTL AP ANN HTG 99.6% CONDNS DB, 1/21 01:00:00, 3.80000, 4.96421E-003, 1666.70881, 0.00000, 0.00000
 Zone Sizing Information, THERMAL ZONE 41, Cooling, 93775.61260, 107841.95449, 5.45072, 6.26833, SAN FRANCISCO INTL AP ANN CLG .4% CONDNS DB=>MWB, 8/21 17:45:00, 26.47250, 7.71372E-003, 1666.70881, 0.00000, 0.00000
 Zone Sizing Information, THERMAL ZONE 41, Heating, 35152.88457, 43941.10571, 1.78949, 2.23686, SAN FRANCISCO INTL AP ANN HTG 99.6% CONDNS DB, 1/21 01:00:00, 3.80000, 4.96421E-003, 1666.70881, 0.00000, 0.00000
 Zone Sizing Information, THERMAL ZONE 45, Cooling, 6438.79675, 7404.61626, 0.37426, 0.43039, SAN FRANCISCO INTL AP ANN CLG .4% CONDNS DB=>MWB, 8/21 18:30:00, 25.62250, 7.71373E-003, 1666.70881, 0.00000, 0.00000
 Zone Sizing Information, THERMAL ZONE 45, Heating, 42585.03623, 53231.29529, 2.16783, 2.70979, SAN FRANCISCO INTL AP ANN HTG 99.6% CONDNS DB, 1/21 01:00:00, 3.80000, 4.96421E-003, 1666.70881, 0.00000, 0.00000
 Zone Sizing Information, THERMAL ZONE 31, Cooling, 77473.12548, 89094.09430, 4.50314, 5.17861, SAN FRANCISCO INTL AP ANN CLG .4% CONDNS DB=>MWB, 8/21 10:45:00, 26.02625, 7.71373E-003, 1666.70881, 0.00000, 0.00000
 Zone Sizing Information, THERMAL ZONE 31, Heating, 35280.05218, 44100.06522, 1.79596, 2.24495, SAN FRANCISCO INTL AP ANN HTG 99.6% CONDNS DB, 1/21 01:00:00, 3.80000, 4.96421E-003, 1666.70881, 0.00000, 0.00000
 Zone Sizing Information, THERMAL ZONE 11, Cooling, 50266.90388, 57806.93946, 2.92174, 3.36000, SAN FRANCISCO INTL AP ANN CLG .4% CONDNS DB=>MWB, 8/21 17:15:00, 26.89750, 7.71372E-003, 1666.70881, 0.00000, 0.00000
 Zone Sizing Information, THERMAL ZONE 11, Heating, 47879.76633, 59849.70791, 2.43736, 3.04670, SAN FRANCISCO INTL AP ANN HTG 99.6% CONDNS DB, 1/21 01:00:00, 3.80000, 4.96421E-003, 1666.70881, 0.00000, 0.00000
 Zone Sizing Information, THERMAL ZONE 42, Cooling, 73401.03527, 84411.19056, 4.26645, 4.90641, SAN FRANCISCO INTL AP ANN CLG .4% CONDNS DB=>MWB, 8/21 10:45:00, 26.02625, 7.71373E-003, 1666.70881, 0.00000, 0.00000
 Zone Sizing Information, THERMAL ZONE 42, Heating, 33895.80878, 42369.76098, 1.72550, 2.15687, SAN FRANCISCO INTL AP ANN HTG 99.6% CONDNS DB, 1/21 01:00:00, 3.80000, 4.96421E-003, 1666.70881, 0.00000, 0.00000
 Zone Sizing Information, THERMAL ZONE 21, Cooling, 75135.89207, 86406.27588, 4.36728, 5.02238, SAN FRANCISCO INTL AP ANN CLG .4% CONDNS DB=>MWB, 8/21 10:45:00, 26.02625, 7.71373E-003, 1666.70881, 0.00000, 0.00000
 Zone Sizing Information, THERMAL ZONE 21, Heating, 34010.49937, 42513.12421, 1.73133, 2.16417, SAN FRANCISCO INTL AP ANN HTG 99.6% CONDNS DB, 1/21 01:00:00, 3.80000, 4.96421E-003, 1666.70881, 0.00000, 0.00000
 Zone Sizing Information, THERMAL ZONE 16, Cooling, 65002.64048, 74753.03655, 3.77829, 4.34503, SAN FRANCISCO INTL AP ANN CLG .4% CONDNS DB=>MWB, 8/21 14:45:00, 28.30000, 7.71372E-003, 1666.70881, 0.00000, 0.00000
 Zone Sizing Information, THERMAL ZONE 16, Heating, 34094.59830, 42618.24787, 1.73561, 2.16952, SAN FRANCISCO INTL AP ANN HTG 99.6% CONDNS DB, 1/21 01:00:00, 3.80000, 4.96421E-003, 1666.70881, 0.00000, 0.00000
 Zone Sizing Information, THERMAL ZONE 33, Heating, 118903.27421, 148629.09276, 6.05287, 7.56609, SAN FRANCISCO INTL AP ANN HTG 99.6% CONDNS DB, 1/21 01:00:00, 3.80000, 4.96421E-003, 305333.16478, 0.00000, 0.00000
 Zone Sizing Information, THERMAL ZONE 17, Cooling, 76504.15087, 87979.77350, 4.44682, 5.11384, SAN FRANCISCO INTL AP ANN CLG .4% CONDNS DB=>MWB, 8/21 10:45:00, 26.02625, 7.71373E-003, 1666.70881, 0.00000, 0.00000
 Zone Sizing Information, THERMAL ZONE 17, Heating, 34286.18806, 42857.73508, 1.74537, 2.18171, SAN FRANCISCO INTL AP ANN HTG 99.6% CONDNS DB, 1/21 01:00:00, 3.80000, 4.96421E-003, 1666.70881, 0.00000, 0.00000
 Zone Sizing Information, THERMAL ZONE 38, Cooling, 74381.35457, 85538.55776, 4.32343, 4.97194, SAN FRANCISCO INTL AP ANN CLG .4% CONDNS DB=>MWB, 8/21 10:45:00, 26.02625, 7.71373E-003, 1666.70881, 0.00000, 0.00000
 Zone Sizing Information, THERMAL ZONE 38, Heating, 42718.16061, 53397.70076, 2.17460, 2.71826, SAN FRANCISCO INTL AP ANN HTG 99.6% CONDNS DB, 1/21 01:00:00, 3.80000, 4.96421E-003, 1666.70881, 0.00000, 0.00000
 Zone Sizing Information, THERMAL ZONE 27, Cooling, 249.32641, 286.72537, 1.44935E-002, 1.66675E-002, SAN FRANCISCO INTL AP ANN CLG .4% CONDNS DB=>MWB, 8/21 16:15:00, 27.62000, 7.71373E-003, 1666.70881, 0.00000, 0.00000
 Zone Sizing Information, THERMAL ZONE 27, Heating, 33814.88764, 42268.60954, 1.72138, 2.15172, SAN FRANCISCO INTL AP ANN HTG 99.6% CONDNS DB, 1/21 01:00:00, 3.80000, 4.96421E-003, 1666.70881, 0.00000, 0.00000
 Zone Sizing Information, THERMAL ZONE 24, Cooling, 68123.13156, 78341.60129, 3.95967, 4.55362, SAN FRANCISCO INTL AP ANN CLG .4% CONDNS DB=>MWB, 8/21 14:45:00, 28.30000, 7.71372E-003, 1666.70881, 0.00000, 0.00000
 Zone Sizing Information, THERMAL ZONE 24, Heating, 33878.99464, 42348.74330, 1.72464, 2.15580, SAN FRANCISCO INTL AP ANN HTG 99.6% CONDNS DB, 1/21 01:00:00, 3.80000, 4.96421E-003, 1666.70881, 0.00000, 0.00000
 Zone Sizing Information, THERMAL ZONE 26, Heating, 422838.30810, 528547.88512, 21.52495, 26.90619, SAN FRANCISCO INTL AP ANN HTG 99.6% CONDNS DB, 1/21 01:00:00, 3.80000, 4.96421E-003, 305333.16478, 0.00000, 0.00000
 Zone Sizing Information, THERMAL ZONE 19, Heating, 46925.48997, 58656.86246, 2.38878, 2.98598, SAN FRANCISCO INTL AP ANN HTG 99.6% CONDNS DB, 1/21 01:00:00, 3.80000, 4.96421E-003, 305333.16478, 0.00000, 0.00000
 Zone Sizing Information, THERMAL ZONE 8, Cooling, 4965.51766, 5710.34531, 0.28862, 0.33191, SAN FRANCISCO INTL AP ANN CLG .4% CONDNS DB=>MWB, 8/21 15:45:00, 27.91750, 7.71373E-003, 1666.70881, 0.00000, 0.00000
 Zone Sizing Information, THERMAL ZONE 8, Heating, 34170.85103, 42713.56379, 1.73950, 2.17437, SAN FRANCISCO INTL AP ANN HTG 99.6% CONDNS DB, 1/21 01:00:00, 3.80000, 4.96421E-003, 1666.70881, 0.00000, 0.00000
 Zone Sizing Information, THERMAL ZONE 18, Cooling, 73910.04519, 84996.55197, 4.29603, 4.94044, SAN FRANCISCO INTL AP ANN CLG .4% CONDNS DB=>MWB, 8/21 14:45:00, 28.30000, 7.71372E-003, 1666.70881, 0.00000, 0.00000
 Zone Sizing Information, THERMAL ZONE 18, Heating, 35280.05218, 44100.06522, 1.79596, 2.24495, SAN FRANCISCO INTL AP ANN HTG 99.6% CONDNS DB, 1/21 01:00:00, 3.80000, 4.96421E-003, 1666.70881, 0.00000, 0.00000
 Zone Sizing Information, THERMAL ZONE 37, Cooling, 61101.19138, 70266.37009, 3.55152, 4.08424, SAN FRANCISCO INTL AP ANN CLG .4% CONDNS DB=>MWB, 8/21 11:00:00, 26.34500, 7.71372E-003, 1666.70881, 0.00000, 0.00000
 Zone Sizing Information, THERMAL ZONE 37, Heating, 35475.53309, 44344.41637, 1.80591, 2.25739, SAN FRANCISCO INTL AP ANN HTG 99.6% CONDNS DB, 1/21 01:00:00, 3.80000, 4.96421E-003, 1666.70881, 0.00000, 0.00000
 Zone Sizing Information, THERMAL ZONE 3, Cooling, 93095.08368, 107059.34623, 5.41117, 6.22284, SAN FRANCISCO INTL AP ANN CLG .4% CONDNS DB=>MWB, 8/21 17:45:00, 26.47250, 7.71372E-003, 1666.70881, 0.00000, 0.00000
 Zone Sizing Information, THERMAL ZONE 3, Heating, 34170.85103, 42713.56379, 1.73950, 2.17437, SAN FRANCISCO INTL AP ANN HTG 99.6% CONDNS DB, 1/21 01:00:00, 3.80000, 4.96421E-003, 1666.70881, 0.00000, 0.00000
 Zone Sizing Information, THERMAL ZONE 43, Heating, 47879.76633, 59849.70791, 2.43736, 3.04670, SAN FRANCISCO INTL AP ANN HTG 99.6% CONDNS DB, 1/21 01:00:00, 3.80000, 4.96421E-003, 1666.70881, 0.00000, 0.00000
 Zone Sizing Information, THERMAL ZONE 5, Cooling, 91862.74648, 105642.15845, 5.33954, 6.14047, SAN FRANCISCO INTL AP ANN CLG .4% CONDNS DB=>MWB, 8/21 17:45:00, 26.47250, 7.71372E-003, 1666.70881, 0.00000, 0.00000
 Zone Sizing Information, THERMAL ZONE 5, Heating, 33909.46535, 42386.83169, 1.72619, 2.15774, SAN FRANCISCO INTL AP ANN HTG 99.6% CONDNS DB, 1/21 01:00:00, 3.80000, 4.96421E-003, 1666.70881, 0.00000, 0.00000
 Zone Sizing Information, THERMAL ZONE 10, Cooling, 77835.24367, 89510.53022, 4.52419, 5.20281, SAN FRANCISCO INTL AP ANN CLG .4% CONDNS DB=>MWB, 8/21 17:45:00, 26.47250, 7.71372E-003, 1666.70881, 0.00000, 0.00000
 Zone Sizing Information, THERMAL ZONE 10, Heating, 35472.85930, 44341.07413, 1.80578, 2.25722, SAN FRANCISCO INTL AP ANN HTG 99.6% CONDNS DB, 1/21 01:00:00, 3.80000, 4.96421E-003, 1666.70881, 0.00000, 0.00000
 Zone Sizing Information, THERMAL ZONE 12, Cooling, 71848.73407, 82626.04418, 4.17622, 4.80265, SAN FRANCISCO INTL AP ANN CLG .4% CONDNS DB=>MWB, 8/21 14:45:00, 28.30000, 7.71372E-003, 1666.70881, 0.00000, 0.00000
 Zone Sizing Information, THERMAL ZONE 12, Heating, 34010.49937, 42513.12421, 1.73133, 2.16417, SAN FRANCISCO INTL AP ANN HTG 99.6% CONDNS DB, 1/21 01:00:00, 3.80000, 4.96421E-003, 1666.70881, 0.00000, 0.00000
 Zone Sizing Information, THERMAL ZONE 34, Heating, 40619.26480, 50774.08101, 2.06776, 2.58470, SAN FRANCISCO INTL AP ANN HTG 99.6% CONDNS DB, 1/21 01:00:00, 3.80000, 4.96421E-003, 305333.16478, 0.00000, 0.00000
 Zone Sizing Information, THERMAL ZONE 44, Heating, 261294.77688, 326618.47110, 13.30144, 16.62679, SAN FRANCISCO INTL AP ANN HTG 99.6% CONDNS DB, 1/21 01:00:00, 3.80000, 4.96421E-003, 305333.16478, 0.00000, 0.00000
! <System Sizing Information>, System Name, Field Description, Value
 System Sizing Information, AIR LOOP HVAC 1, Calculated Cooling Design Air Flow Rate [m3/s], 132.26542
 System Sizing Information, AIR LOOP HVAC 1, User Cooling Design Air Flow Rate [m3/s], 132.26542
 System Sizing Information, AIR LOOP HVAC 1, Calculated Heating Design Air Flow Rate [m3/s], 377.44227
 System Sizing Information, AIR LOOP HVAC 1, User Heating Design Air Flow Rate [m3/s], 377.44227
! <Component Sizing Information>, Component Type, Component Name, Input Field Description, Value
 Component Sizing Information, AirTerminal:SingleDuct:VAV:Reheat, AIR TERMINAL SINGLE DUCT VAV REHEAT 36, Maximum Air Flow Rate [m3/s], 3.92933
 Component Sizing Information, AirTerminal:SingleDuct:VAV:Reheat, AIR TERMINAL SINGLE DUCT VAV REHEAT 36, Maximum Flow per Zone Floor Area during Reheat [m3/s-m2], 2.03200E-003
 Component Sizing Information, AirTerminal:SingleDuct:VAV:Reheat, AIR TERMINAL SINGLE DUCT VAV REHEAT 36, Maximum Flow Fraction during Reheat [], 0.86192
 Component Sizing Information, AirTerminal:SingleDuct:VAV:Reheat, AIR TERMINAL SINGLE DUCT VAV REHEAT 36, Maximum Reheat Water Flow Rate [m3/s], 1.66555E-003
 Component Sizing Information, AirTerminal:SingleDuct:VAV:Reheat, AIR TERMINAL SINGLE DUCT VAV REHEAT 36, Reheat Coil Sizing Air Volume Flow Rate [m3/s], 2.25739
 Component Sizing Information, Coil:Heating:Water, COIL HEATING WATER 37, Maximum Water Flow Rate [m3/s], 1.66555E-003
 Component Sizing Information, Coil:Heating:Water, COIL HEATING WATER 37, Design Coil Load [W], 76665.80401
 Component Sizing Information, Coil:Heating:Water, COIL HEATING WATER 37, U-Factor Times Area Value [W/K], 2794.87369
! <Water Heating Coil Capacity Information>,Component Type,Name,Nominal Total Capacity {W}
Water Heating Coil Capacity Information,Coil:Heating:Water,COIL HEATING WATER 37,102529.19
 Component Sizing Information, AirTerminal:SingleDuct:VAV:Reheat, AIR TERMINAL SINGLE DUCT VAV REHEAT 15, Maximum Air Flow Rate [m3/s], 4.53664
 Component Sizing Information, AirTerminal:SingleDuct:VAV:Reheat, AIR TERMINAL SINGLE DUCT VAV REHEAT 15, Maximum Flow per Zone Floor Area during Reheat [m3/s-m2], 2.03200E-003
 Component Sizing Information, AirTerminal:SingleDuct:VAV:Reheat, AIR TERMINAL SINGLE DUCT VAV REHEAT 15, Maximum Flow Fraction during Reheat [], 0.74653
 Component Sizing Information, AirTerminal:SingleDuct:VAV:Reheat, AIR TERMINAL SINGLE DUCT VAV REHEAT 15, Maximum Reheat Water Flow Rate [m3/s], 1.60072E-003
 Component Sizing Information, AirTerminal:SingleDuct:VAV:Reheat, AIR TERMINAL SINGLE DUCT VAV REHEAT 15, Reheat Coil Sizing Air Volume Flow Rate [m3/s], 2.16952
 Component Sizing Information, Coil:Heating:Water, COIL HEATING WATER 16, Maximum Water Flow Rate [m3/s], 1.60072E-003
 Component Sizing Information, Coil:Heating:Water, COIL HEATING WATER 16, Design Coil Load [W], 73681.48025
 Component Sizing Information, Coil:Heating:Water, COIL HEATING WATER 16, U-Factor Times Area Value [W/K], 3226.84590
Water Heating Coil Capacity Information,Coil:Heating:Water,COIL HEATING WATER 16,108401.44
 Component Sizing Information, AirTerminal:SingleDuct:VAV:Reheat, AIR TERMINAL SINGLE DUCT VAV REHEAT 9, Maximum Air Flow Rate [m3/s], 4.88811
 Component Sizing Information, AirTerminal:SingleDuct:VAV:Reheat, AIR TERMINAL SINGLE DUCT VAV REHEAT 9, Maximum Flow per Zone Floor Area during Reheat [m3/s-m2], 2.03200E-003
 Component Sizing Information, AirTerminal:SingleDuct:VAV:Reheat, AIR TERMINAL SINGLE DUCT VAV REHEAT 9, Maximum Flow Fraction during Reheat [], 0.69286
 Component Sizing Information, AirTerminal:SingleDuct:VAV:Reheat, AIR TERMINAL SINGLE DUCT VAV REHEAT 9, Maximum Reheat Water Flow Rate [m3/s], 1.60971E-003
 Component Sizing Information, AirTerminal:SingleDuct:VAV:Reheat, AIR TERMINAL SINGLE DUCT VAV REHEAT 9, Reheat Coil Sizing Air Volume Flow Rate [m3/s], 2.18171
 Component Sizing Information, Coil:Heating:Water, COIL HEATING WATER 10, Maximum Water Flow Rate [m3/s], 1.60971E-003
 Component Sizing Information, Coil:Heating:Water, COIL HEATING WATER 10, Design Coil Load [W], 74095.52289
 Component Sizing Information, Coil:Heating:Water, COIL HEATING WATER 10, U-Factor Times Area Value [W/K], 3476.83978
Water Heating Coil Capacity Information,Coil:Heating:Water,COIL HEATING WATER 10,112699.67
 Component Sizing Information, AirTerminal:SingleDuct:VAV:Reheat, AIR TERMINAL SINGLE DUCT VAV REHEAT 6, Maximum Air Flow Rate [m3/s], 4.69412
 Component Sizing Information, AirTerminal:SingleDuct:VAV:Reheat, AIR TERMINAL SINGLE DUCT VAV REHEAT 6, Maximum Flow per Zone Floor Area during Reheat [m3/s-m2], 2.03200E-003
 Component Sizing Information, AirTerminal:SingleDuct:VAV:Reheat, AIR TERMINAL SINGLE DUCT VAV REHEAT 6, Maximum Flow Fraction during Reheat [], 0.72149
 Component Sizing Information, AirTerminal:SingleDuct:VAV:Reheat, AIR TERMINAL SINGLE DUCT VAV REHEAT 6, Maximum Reheat Water Flow Rate [m3/s], 1.59138E-003
 Component Sizing Information, AirTerminal:SingleDuct:VAV:Reheat, AIR TERMINAL SINGLE DUCT VAV REHEAT 6, Reheat Coil Sizing Air Volume Flow Rate [m3/s], 2.15687
 Component Sizing Information, Coil:Heating:Water, COIL HEATING WATER 7, Maximum Water Flow Rate [m3/s], 1.59138E-003
 Component Sizing Information, Coil:Heating:Water, COIL HEATING WATER 7, Design Coil Load [W], 73251.87830
 Component Sizing Information, Coil:Heating:Water, COIL HEATING WATER 7, U-Factor Times Area Value [W/K], 3338.85992
Water Heating Coil Capacity Information,Coil:Heating:Water,COIL HEATING WATER 7,109886.31
 Component Sizing Information, AirTerminal:SingleDuct:VAV:Reheat, AIR TERMINAL SINGLE DUCT VAV REHEAT 29, Maximum Air Flow Rate [m3/s], 2.25722
 Component Sizing Information, AirTerminal:SingleDuct:VAV:Reheat, AIR TERMINAL SINGLE DUCT VAV REHEAT 29, Maximum Flow per Zone Floor Area during Reheat [m3/s-m2], 1.35430E-003
 Component Sizing Information, AirTerminal:SingleDuct:VAV:Reheat, AIR TERMINAL SINGLE DUCT VAV REHEAT 29, Maximum Flow Fraction during Reheat [], 1.00000
 Component Sizing Information, AirTerminal:SingleDuct:VAV:Reheat, AIR TERMINAL SINGLE DUCT VAV REHEAT 29, Maximum Reheat Water Flow Rate [m3/s], 1.66543E-003
 Component Sizing Information, AirTerminal:SingleDuct:VAV:Reheat, AIR TERMINAL SINGLE DUCT VAV REHEAT 29, Reheat Coil Sizing Air Volume Flow Rate [m3/s], 2.25722
 Component Sizing Information, Coil:Heating:Water, COIL HEATING WATER 30, Maximum Water Flow Rate [m3/s], 1.66543E-003
 Component Sizing Information, Coil:Heating:Water, COIL HEATING WATER 30, Design Coil Load [W], 76660.02571
 Component Sizing Information, Coil:Heating:Water, COIL HEATING WATER 30, U-Factor Times Area Value [W/K], 1605.52767
Water Heating Coil Capacity Information,Coil:Heating:Water,COIL HEATING WATER 30,72617.59
 Component Sizing Information, AirTerminal:SingleDuct:VAV:Reheat, AIR TERMINAL SINGLE DUCT VAV REHEAT 12, Maximum Air Flow Rate [m3/s], 2.23686
 Component Sizing Information, AirTerminal:SingleDuct:VAV:Reheat, AIR TERMINAL SINGLE DUCT VAV REHEAT 12, Maximum Flow per Zone Floor Area during Reheat [m3/s-m2], 1.34208E-003
 Component Sizing Information, AirTerminal:SingleDuct:VAV:Reheat, AIR TERMINAL SINGLE DUCT VAV REHEAT 12, Maximum Flow Fraction during Reheat [], 1.00000
 Component Sizing Information, AirTerminal:SingleDuct:VAV:Reheat, AIR TERMINAL SINGLE DUCT VAV REHEAT 12, Maximum Reheat Water Flow Rate [m3/s], 1.65040E-003
 Component Sizing Information, AirTerminal:SingleDuct:VAV:Reheat, AIR TERMINAL SINGLE DUCT VAV REHEAT 12, Reheat Coil Sizing Air Volume Flow Rate [m3/s], 2.23686
 Component Sizing Information, Coil:Heating:Water, COIL HEATING WATER 13, Maximum Water Flow Rate [m3/s], 1.65040E-003
 Component Sizing Information, Coil:Heating:Water, COIL HEATING WATER 13, Design Coil Load [W], 75968.53165
 Component Sizing Information, Coil:Heating:Water, COIL HEATING WATER 13, U-Factor Times Area Value [W/K], 1591.04538
Water Heating Coil Capacity Information,Coil:Heating:Water,COIL HEATING WATER 13,71962.56
 Component Sizing Information, AirTerminal:SingleDuct:VAV:Reheat, AIR TERMINAL SINGLE DUCT VAV REHEAT 35, Maximum Air Flow Rate [m3/s], 2.15151
 Component Sizing Information, AirTerminal:SingleDuct:VAV:Reheat, AIR TERMINAL SINGLE DUCT VAV REHEAT 35, Maximum Flow per Zone Floor Area during Reheat [m3/s-m2], 1.29087E-003
 Component Sizing Information, AirTerminal:SingleDuct:VAV:Reheat, AIR TERMINAL SINGLE DUCT VAV REHEAT 35, Maximum Flow Fraction during Reheat [], 1.00000
 Component Sizing Information, AirTerminal:SingleDuct:VAV:Reheat, AIR TERMINAL SINGLE DUCT VAV REHEAT 35, Maximum Reheat Water Flow Rate [m3/s], 1.58743E-003
 Component Sizing Information, AirTerminal:SingleDuct:VAV:Reheat, AIR TERMINAL SINGLE DUCT VAV REHEAT 35, Reheat Coil Sizing Air Volume Flow Rate [m3/s], 2.15151
 Component Sizing Information, Coil:Heating:Water, COIL HEATING WATER 36, Maximum Water Flow Rate [m3/s], 1.58743E-003
 Component Sizing Information, Coil:Heating:Water, COIL HEATING WATER 36, Design Coil Load [W], 73069.73425
 Component Sizing Information, Coil:Heating:Water, COIL HEATING WATER 36, U-Factor Times Area Value [W/K], 1530.33447
Water Heating Coil Capacity Information,Coil:Heating:Water,COIL HEATING WATER 36,69216.62
 Component Sizing Information, AirTerminal:SingleDuct:VAV:Reheat, AIR TERMINAL SINGLE DUCT VAV REHEAT 45, Maximum Air Flow Rate [m3/s], 5.49770
 Component Sizing Information, AirTerminal:SingleDuct:VAV:Reheat, AIR TERMINAL SINGLE DUCT VAV REHEAT 45, Maximum Flow per Zone Floor Area during Reheat [m3/s-m2], 1.80056E-005
 Component Sizing Information, AirTerminal:SingleDuct:VAV:Reheat, AIR TERMINAL SINGLE DUCT VAV REHEAT 45, Maximum Flow Fraction during Reheat [], 1.00000
 Component Sizing Information, AirTerminal:SingleDuct:VAV:Reheat, AIR TERMINAL SINGLE DUCT VAV REHEAT 45, Maximum Reheat Water Flow Rate [m3/s], 4.05632E-003
 Component Sizing Information, AirTerminal:SingleDuct:VAV:Reheat, AIR TERMINAL SINGLE DUCT VAV REHEAT 45, Reheat Coil Sizing Air Volume Flow Rate [m3/s], 5.49770
 Component Sizing Information, Coil:Heating:Water, COIL HEATING WATER 46, Maximum Water Flow Rate [m3/s], 4.05632E-003
 Component Sizing Information, Coil:Heating:Water, COIL HEATING WATER 46, Design Coil Load [W], 186713.44483
 Component Sizing Information, Coil:Heating:Water, COIL HEATING WATER 46, U-Factor Times Area Value [W/K], 3910.42919
Water Heating Coil Capacity Information,Coil:Heating:Water,COIL HEATING WATER 46,176867.67
 Component Sizing Information, AirTerminal:SingleDuct:VAV:Reheat, AIR TERMINAL SINGLE DUCT VAV REHEAT 14, Maximum Air Flow Rate [m3/s], 2.15774
 Component Sizing Information, AirTerminal:SingleDuct:VAV:Reheat, AIR TERMINAL SINGLE DUCT VAV REHEAT 14, Maximum Flow per Zone Floor Area during Reheat [m3/s-m2], 1.29461E-003
 Component Sizing Information, AirTerminal:SingleDuct:VAV:Reheat, AIR TERMINAL SINGLE DUCT VAV REHEAT 14, Maximum Flow Fraction during Reheat [], 1.00000
 Component Sizing Information, AirTerminal:SingleDuct:VAV:Reheat, AIR TERMINAL SINGLE DUCT VAV REHEAT 14, Maximum Reheat Water Flow Rate [m3/s], 1.59202E-003
 Component Sizing Information, AirTerminal:SingleDuct:VAV:Reheat, AIR TERMINAL SINGLE DUCT VAV REHEAT 14, Reheat Coil Sizing Air Volume Flow Rate [m3/s], 2.15774
 Component Sizing Information, Coil:Heating:Water, COIL HEATING WATER 15, Maximum Water Flow Rate [m3/s], 1.59202E-003
 Component Sizing Information, Coil:Heating:Water, COIL HEATING WATER 15, Design Coil Load [W], 73281.39138
 Component Sizing Information, Coil:Heating:Water, COIL HEATING WATER 15, U-Factor Times Area Value [W/K], 1534.76731
Water Heating Coil Capacity Information,Coil:Heating:Water,COIL HEATING WATER 15,69417.12
 Component Sizing Information, AirTerminal:SingleDuct:VAV:Reheat, AIR TERMINAL SINGLE DUCT VAV REHEAT 28, Maximum Air Flow Rate [m3/s], 78.73338
 Component Sizing Information, AirTerminal:SingleDuct:VAV:Reheat, AIR TERMINAL SINGLE DUCT VAV REHEAT 28, Maximum Flow per Zone Floor Area during Reheat [m3/s-m2], 2.57861E-004
 Component Sizing Information, AirTerminal:SingleDuct:VAV:Reheat, AIR TERMINAL SINGLE DUCT VAV REHEAT 28, Maximum Flow Fraction during Reheat [], 1.00000
 Component Sizing Information, AirTerminal:SingleDuct:VAV:Reheat, AIR TERMINAL SINGLE DUCT VAV REHEAT 28, Maximum Reheat Water Flow Rate [m3/s], 5.80912E-002
 Component Sizing Information, AirTerminal:SingleDuct:VAV:Reheat, AIR TERMINAL SINGLE DUCT VAV REHEAT 28, Reheat Coil Sizing Air Volume Flow Rate [m3/s], 78.73338
 Component Sizing Information, Coil:Heating:Water, COIL HEATING WATER 29, Maximum Water Flow Rate [m3/s], 5.80912E-002
 Component Sizing Information, Coil:Heating:Water, COIL HEATING WATER 29, Design Coil Load [W], 2673953.47528
 Component Sizing Information, Coil:Heating:Water, COIL HEATING WATER 29, U-Factor Times Area Value [W/K], 56001.88955
Water Heating Coil Capacity Information,Coil:Heating:Water,COIL HEATING WATER 29,2532950.56
 Component Sizing Information, AirTerminal:SingleDuct:VAV:Reheat, AIR TERMINAL SINGLE DUCT VAV REHEAT 7, Maximum Air Flow Rate [m3/s], 2.16707
 Component Sizing Information, AirTerminal:SingleDuct:VAV:Reheat, AIR TERMINAL SINGLE DUCT VAV REHEAT 7, Maximum Flow per Zone Floor Area during Reheat [m3/s-m2], 1.30021E-003
 Component Sizing Information, AirTerminal:SingleDuct:VAV:Reheat, AIR TERMINAL SINGLE DUCT VAV REHEAT 7, Maximum Flow Fraction during Reheat [], 1.00000
 Component Sizing Information, AirTerminal:SingleDuct:VAV:Reheat, AIR TERMINAL SINGLE DUCT VAV REHEAT 7, Maximum Reheat Water Flow Rate [m3/s], 1.59891E-003
 Component Sizing Information, AirTerminal:SingleDuct:VAV:Reheat, AIR TERMINAL SINGLE DUCT VAV REHEAT 7, Reheat Coil Sizing Air Volume Flow Rate [m3/s], 2.16707
 Component Sizing Information, Coil:Heating:Water, COIL HEATING WATER 8, Maximum Water Flow Rate [m3/s], 1.59891E-003
 Component Sizing Information, Coil:Heating:Water, COIL HEATING WATER 8, Design Coil Load [W], 73598.43704
 Component Sizing Information, Coil:Heating:Water, COIL HEATING WATER 8, U-Factor Times Area Value [W/K], 1541.40735
Water Heating Coil Capacity Information,Coil:Heating:Water,COIL HEATING WATER 8,69717.44
 Component Sizing Information, AirTerminal:SingleDuct:VAV:Reheat, AIR TERMINAL SINGLE DUCT VAV REHEAT 23, Maximum Air Flow Rate [m3/s], 148.78487
 Component Sizing Information, AirTerminal:SingleDuct:VAV:Reheat, AIR TERMINAL SINGLE DUCT VAV REHEAT 23, Maximum Flow per Zone Floor Area during Reheat [m3/s-m2], 4.87287E-004
 Component Sizing Information, AirTerminal:SingleDuct:VAV:Reheat, AIR TERMINAL SINGLE DUCT VAV REHEAT 23, Maximum Flow Fraction during Reheat [], 1.00000
 Component Sizing Information, AirTerminal:SingleDuct:VAV:Reheat, AIR TERMINAL SINGLE DUCT VAV REHEAT 23, Maximum Reheat Water Flow Rate [m3/s], 0.10978
 Component Sizing Information, AirTerminal:SingleDuct:VAV:Reheat, AIR TERMINAL SINGLE DUCT VAV REHEAT 23, Reheat Coil Sizing Air Volume Flow Rate [m3/s], 148.78487
 Component Sizing Information, Coil:Heating:Water, COIL HEATING WATER 24, Maximum Water Flow Rate [m3/s], 0.10978
 Component Sizing Information, Coil:Heating:Water, COIL HEATING WATER 24, Design Coil Load [W], 5053051.35319
 Component Sizing Information, Coil:Heating:Water, COIL HEATING WATER 24, U-Factor Times Area Value [W/K], 105828.47697
Water Heating Coil Capacity Information,Coil:Heating:Water,COIL HEATING WATER 24,4786593.85
 Component Sizing Information, AirTerminal:SingleDuct:VAV:Reheat, AIR TERMINAL SINGLE DUCT VAV REHEAT 44, Maximum Air Flow Rate [m3/s], 3.04344
 Component Sizing Information, AirTerminal:SingleDuct:VAV:Reheat, AIR TERMINAL SINGLE DUCT VAV REHEAT 44, Maximum Flow per Zone Floor Area during Reheat [m3/s-m2], 1.82602E-003
 Component Sizing Information, AirTerminal:SingleDuct:VAV:Reheat, AIR TERMINAL SINGLE DUCT VAV REHEAT 44, Maximum Flow Fraction during Reheat [], 1.00000
 Component Sizing Information, AirTerminal:SingleDuct:VAV:Reheat, AIR TERMINAL SINGLE DUCT VAV REHEAT 44, Maximum Reheat Water Flow Rate [m3/s], 2.24552E-003
 Component Sizing Information, AirTerminal:SingleDuct:VAV:Reheat, AIR TERMINAL SINGLE DUCT VAV REHEAT 44, Reheat Coil Sizing Air Volume Flow Rate [m3/s], 3.04344
 Component Sizing Information, Coil:Heating:Water, COIL HEATING WATER 45, Maximum Water Flow Rate [m3/s], 2.24552E-003
 Component Sizing Information, Coil:Heating:Water, COIL HEATING WATER 45, Design Coil Load [W], 103361.87435
 Component Sizing Information, Coil:Heating:Water, COIL HEATING WATER 45, U-Factor Times Area Value [W/K], 2164.75729
Water Heating Coil Capacity Information,Coil:Heating:Water,COIL HEATING WATER 45,97911.40
 Component Sizing Information, AirTerminal:SingleDuct:VAV:Reheat, AIR TERMINAL SINGLE DUCT VAV REHEAT 32, Maximum Air Flow Rate [m3/s], 3.46641
 Component Sizing Information, AirTerminal:SingleDuct:VAV:Reheat, AIR TERMINAL SINGLE DUCT VAV REHEAT 32, Maximum Flow per Zone Floor Area during Reheat [m3/s-m2], 1.13529E-005
 Component Sizing Information, AirTerminal:SingleDuct:VAV:Reheat, AIR TERMINAL SINGLE DUCT VAV REHEAT 32, Maximum Flow Fraction during Reheat [], 1.00000
 Component Sizing Information, AirTerminal:SingleDuct:VAV:Reheat, AIR TERMINAL SINGLE DUCT VAV REHEAT 32, Maximum Reheat Water Flow Rate [m3/s], 2.55759E-003
 Component Sizing Information, AirTerminal:SingleDuct:VAV:Reheat, AIR TERMINAL SINGLE DUCT VAV REHEAT 32, Reheat Coil Sizing Air Volume Flow Rate [m3/s], 3.46641
 Component Sizing Information, Coil:Heating:Water, COIL HEATING WATER 33, Maximum Water Flow Rate [m3/s], 2.55759E-003
 Component Sizing Information, Coil:Heating:Water, COIL HEATING WATER 33, Design Coil Load [W], 117726.79503
 Component Sizing Information, Coil:Heating:Water, COIL HEATING WATER 33, U-Factor Times Area Value [W/K], 2465.60871
Water Heating Coil Capacity Information,Coil:Heating:Water,COIL HEATING WATER 33,111518.83
 Component Sizing Information, AirTerminal:SingleDuct:VAV:Reheat, AIR TERMINAL SINGLE DUCT VAV REHEAT 30, Maximum Air Flow Rate [m3/s], 5.67262
 Component Sizing Information, AirTerminal:SingleDuct:VAV:Reheat, AIR TERMINAL SINGLE DUCT VAV REHEAT 30, Maximum Flow per Zone Floor Area during Reheat [m3/s-m2], 2.03200E-003
 Component Sizing Information, AirTerminal:SingleDuct:VAV:Reheat, AIR TERMINAL SINGLE DUCT VAV REHEAT 30, Maximum Flow Fraction during Reheat [], 0.59703
 Component Sizing Information, AirTerminal:SingleDuct:VAV:Reheat, AIR TERMINAL SINGLE DUCT VAV REHEAT 30, Maximum Reheat Water Flow Rate [m3/s], 1.59891E-003
 Component Sizing Information, AirTerminal:SingleDuct:VAV:Reheat, AIR TERMINAL SINGLE DUCT VAV REHEAT 30, Reheat Coil Sizing Air Volume Flow Rate [m3/s], 2.16707
 Component Sizing Information, Coil:Heating:Water, COIL HEATING WATER 31, Maximum Water Flow Rate [m3/s], 1.59891E-003
 Component Sizing Information, Coil:Heating:Water, COIL HEATING WATER 31, Design Coil Load [W], 73598.43704
 Component Sizing Information, Coil:Heating:Water, COIL HEATING WATER 31, U-Factor Times Area Value [W/K], 4034.85091
Water Heating Coil Capacity Information,Coil:Heating:Water,COIL HEATING WATER 31,120020.04
 Component Sizing Information, AirTerminal:SingleDuct:VAV:Reheat, AIR TERMINAL SINGLE DUCT VAV REHEAT 10, Maximum Air Flow Rate [m3/s], 4.73956
 Component Sizing Information, AirTerminal:SingleDuct:VAV:Reheat, AIR TERMINAL SINGLE DUCT VAV REHEAT 10, Maximum Flow per Zone Floor Area during Reheat [m3/s-m2], 2.03200E-003
 Component Sizing Information, AirTerminal:SingleDuct:VAV:Reheat, AIR TERMINAL SINGLE DUCT VAV REHEAT 10, Maximum Flow Fraction during Reheat [], 0.71457
 Component Sizing Information, AirTerminal:SingleDuct:VAV:Reheat, AIR TERMINAL SINGLE DUCT VAV REHEAT 10, Maximum Reheat Water Flow Rate [m3/s], 2.00559E-003
 Component Sizing Information, AirTerminal:SingleDuct:VAV:Reheat, AIR TERMINAL SINGLE DUCT VAV REHEAT 10, Reheat Coil Sizing Air Volume Flow Rate [m3/s], 2.71826
 Component Sizing Information, Coil:Heating:Water, COIL HEATING WATER 11, Maximum Water Flow Rate [m3/s], 2.00559E-003
 Component Sizing Information, Coil:Heating:Water, COIL HEATING WATER 11, Design Coil Load [W], 92317.77068
 Component Sizing Information, Coil:Heating:Water, COIL HEATING WATER 11, U-Factor Times Area Value [W/K], 3371.18222
Water Heating Coil Capacity Information,Coil:Heating:Water,COIL HEATING WATER 11,123575.91
 Component Sizing Information, AirTerminal:SingleDuct:VAV:Reheat, AIR TERMINAL SINGLE DUCT VAV REHEAT 22, Maximum Air Flow Rate [m3/s], 5.89128
 Component Sizing Information, AirTerminal:SingleDuct:VAV:Reheat, AIR TERMINAL SINGLE DUCT VAV REHEAT 22, Maximum Flow per Zone Floor Area during Reheat [m3/s-m2], 2.03200E-003
 Component Sizing Information, AirTerminal:SingleDuct:VAV:Reheat, AIR TERMINAL SINGLE DUCT VAV REHEAT 22, Maximum Flow Fraction during Reheat [], 0.57488
 Component Sizing Information, AirTerminal:SingleDuct:VAV:Reheat, AIR TERMINAL SINGLE DUCT VAV REHEAT 22, Maximum Reheat Water Flow Rate [m3/s], 1.58758E-003
 Component Sizing Information, AirTerminal:SingleDuct:VAV:Reheat, AIR TERMINAL SINGLE DUCT VAV REHEAT 22, Reheat Coil Sizing Air Volume Flow Rate [m3/s], 2.15172
 Component Sizing Information, Coil:Heating:Water, COIL HEATING WATER 23, Maximum Water Flow Rate [m3/s], 1.58758E-003
 Component Sizing Information, Coil:Heating:Water, COIL HEATING WATER 23, Design Coil Load [W], 73077.00046
 Component Sizing Information, Coil:Heating:Water, COIL HEATING WATER 23, U-Factor Times Area Value [W/K], 4190.38086
Water Heating Coil Capacity Information,Coil:Heating:Water,COIL HEATING WATER 23,121422.29
 Component Sizing Information, AirTerminal:SingleDuct:VAV:Reheat, AIR TERMINAL SINGLE DUCT VAV REHEAT 31, Maximum Air Flow Rate [m3/s], 4.75719
 Component Sizing Information, AirTerminal:SingleDuct:VAV:Reheat, AIR TERMINAL SINGLE DUCT VAV REHEAT 31, Maximum Flow per Zone Floor Area during Reheat [m3/s-m2], 2.03200E-003
 Component Sizing Information, AirTerminal:SingleDuct:VAV:Reheat, AIR TERMINAL SINGLE DUCT VAV REHEAT 31, Maximum Flow Fraction during Reheat [], 0.71192
 Component Sizing Information, AirTerminal:SingleDuct:VAV:Reheat, AIR TERMINAL SINGLE DUCT VAV REHEAT 31, Maximum Reheat Water Flow Rate [m3/s], 1.59059E-003
 Component Sizing Information, AirTerminal:SingleDuct:VAV:Reheat, AIR TERMINAL SINGLE DUCT VAV REHEAT 31, Reheat Coil Sizing Air Volume Flow Rate [m3/s], 2.15580
 Component Sizing Information, Coil:Heating:Water, COIL HEATING WATER 32, Maximum Water Flow Rate [m3/s], 1.59059E-003
 Component Sizing Information, Coil:Heating:Water, COIL HEATING WATER 32, Design Coil Load [W], 73215.54144
 Component Sizing Information, Coil:Heating:Water, COIL HEATING WATER 32, U-Factor Times Area Value [W/K], 3383.71993
Water Heating Coil Capacity Information,Coil:Heating:Water,COIL HEATING WATER 32,110561.66
 Component Sizing Information, AirTerminal:SingleDuct:VAV:Reheat, AIR TERMINAL SINGLE DUCT VAV REHEAT 43, Maximum Air Flow Rate [m3/s], 6.03314
 Component Sizing Information, AirTerminal:SingleDuct:VAV:Reheat, AIR TERMINAL SINGLE DUCT VAV REHEAT 43, Maximum Flow per Zone Floor Area during Reheat [m3/s-m2], 2.03200E-003
 Component Sizing Information, AirTerminal:SingleDuct:VAV:Reheat, AIR TERMINAL SINGLE DUCT VAV REHEAT 43, Maximum Flow Fraction during Reheat [], 0.56136
 Component Sizing Information, AirTerminal:SingleDuct:VAV:Reheat, AIR TERMINAL SINGLE DUCT VAV REHEAT 43, Maximum Reheat Water Flow Rate [m3/s], 1.58743E-003
 Component Sizing Information, AirTerminal:SingleDuct:VAV:Reheat, AIR TERMINAL SINGLE DUCT VAV REHEAT 43, Reheat Coil Sizing Air Volume Flow Rate [m3/s], 2.15151
 Component Sizing Information, Coil:Heating:Water, COIL HEATING WATER 44, Maximum Water Flow Rate [m3/s], 1.58743E-003
 Component Sizing Information, Coil:Heating:Water, COIL HEATING WATER 44, Design Coil Load [W], 73069.73425
 Component Sizing Information, Coil:Heating:Water, COIL HEATING WATER 44, U-Factor Times Area Value [W/K], 4291.28220
Water Heating Coil Capacity Information,Coil:Heating:Water,COIL HEATING WATER 44,122593.94
 Component Sizing Information, AirTerminal:SingleDuct:VAV:Reheat, AIR TERMINAL SINGLE DUCT VAV REHEAT 5, Maximum Air Flow Rate [m3/s], 6.16455
 Component Sizing Information, AirTerminal:SingleDuct:VAV:Reheat, AIR TERMINAL SINGLE DUCT VAV REHEAT 5, Maximum Flow per Zone Floor Area during Reheat [m3/s-m2], 2.03200E-003
 Component Sizing Information, AirTerminal:SingleDuct:VAV:Reheat, AIR TERMINAL SINGLE DUCT VAV REHEAT 5, Maximum Flow Fraction during Reheat [], 0.54939
 Component Sizing Information, AirTerminal:SingleDuct:VAV:Reheat, AIR TERMINAL SINGLE DUCT VAV REHEAT 5, Maximum Reheat Water Flow Rate [m3/s], 1.99934E-003
 Component Sizing Information, AirTerminal:SingleDuct:VAV:Reheat, AIR TERMINAL SINGLE DUCT VAV REHEAT 5, Reheat Coil Sizing Air Volume Flow Rate [m3/s], 2.70979
 Component Sizing Information, Coil:Heating:Water, COIL HEATING WATER 6, Maximum Water Flow Rate [m3/s], 1.99934E-003
 Component Sizing Information, Coil:Heating:Water, COIL HEATING WATER 6, Design Coil Load [W], 92030.07698
 Component Sizing Information, Coil:Heating:Water, COIL HEATING WATER 6, U-Factor Times Area Value [W/K], 4384.75555
Water Heating Coil Capacity Information,Coil:Heating:Water,COIL HEATING WATER 6,140983.77
 Component Sizing Information, AirTerminal:SingleDuct:VAV:Reheat, AIR TERMINAL SINGLE DUCT VAV REHEAT 8, Maximum Air Flow Rate [m3/s], 3.04344
 Component Sizing Information, AirTerminal:SingleDuct:VAV:Reheat, AIR TERMINAL SINGLE DUCT VAV REHEAT 8, Maximum Flow per Zone Floor Area during Reheat [m3/s-m2], 1.82602E-003
 Component Sizing Information, AirTerminal:SingleDuct:VAV:Reheat, AIR TERMINAL SINGLE DUCT VAV REHEAT 8, Maximum Flow Fraction during Reheat [], 1.00000
 Component Sizing Information, AirTerminal:SingleDuct:VAV:Reheat, AIR TERMINAL SINGLE DUCT VAV REHEAT 8, Maximum Reheat Water Flow Rate [m3/s], 2.24552E-003
 Component Sizing Information, AirTerminal:SingleDuct:VAV:Reheat, AIR TERMINAL SINGLE DUCT VAV REHEAT 8, Reheat Coil Sizing Air Volume Flow Rate [m3/s], 3.04344
 Component Sizing Information, Coil:Heating:Water, COIL HEATING WATER 9, Maximum Water Flow Rate [m3/s], 2.24552E-003
 Component Sizing Information, Coil:Heating:Water, COIL HEATING WATER 9, Design Coil Load [W], 103361.87435
 Component Sizing Information, Coil:Heating:Water, COIL HEATING WATER 9, U-Factor Times Area Value [W/K], 2164.75729
Water Heating Coil Capacity Information,Coil:Heating:Water,COIL HEATING WATER 9,97911.40
 Component Sizing Information, AirTerminal:SingleDuct:VAV:Reheat, AIR TERMINAL SINGLE DUCT VAV REHEAT 33, Maximum Air Flow Rate [m3/s], 6.26833
 Component Sizing Information, AirTerminal:SingleDuct:VAV:Reheat, AIR TERMINAL SINGLE DUCT VAV REHEAT 33, Maximum Flow per Zone Floor Area during Reheat [m3/s-m2], 2.03200E-003
 Component Sizing Information, AirTerminal:SingleDuct:VAV:Reheat, AIR TERMINAL SINGLE DUCT VAV REHEAT 33, Maximum Flow Fraction during Reheat [], 0.54030
 Component Sizing Information, AirTerminal:SingleDuct:VAV:Reheat, AIR TERMINAL SINGLE DUCT VAV REHEAT 33, Maximum Reheat Water Flow Rate [m3/s], 1.65040E-003
 Component Sizing Information, AirTerminal:SingleDuct:VAV:Reheat, AIR TERMINAL SINGLE DUCT VAV REHEAT 33, Reheat Coil Sizing Air Volume Flow Rate [m3/s], 2.23686
 Component Sizing Information, Coil:Heating:Water, COIL HEATING WATER 34, Maximum Water Flow Rate [m3/s], 1.65040E-003
 Component Sizing Information, Coil:Heating:Water, COIL HEATING WATER 34, Design Coil Load [W], 75968.53165
 Component Sizing Information, Coil:Heating:Water, COIL HEATING WATER 34, U-Factor Times Area Value [W/K], 4458.57011
Water Heating Coil Capacity Information,Coil:Heating:Water,COIL HEATING WATER 34,127423.47
 Component Sizing Information, AirTerminal:SingleDuct:VAV:Reheat, AIR TERMINAL SINGLE DUCT VAV REHEAT 19, Maximum Air Flow Rate [m3/s], 2.70979
 Component Sizing Information, AirTerminal:SingleDuct:VAV:Reheat, AIR TERMINAL SINGLE DUCT VAV REHEAT 19, Maximum Flow per Zone Floor Area during Reheat [m3/s-m2], 1.62583E-003
 Component Sizing Information, AirTerminal:SingleDuct:VAV:Reheat, AIR TERMINAL SINGLE DUCT VAV REHEAT 19, Maximum Flow Fraction during Reheat [], 1.00000
 Component Sizing Information, AirTerminal:SingleDuct:VAV:Reheat, AIR TERMINAL SINGLE DUCT VAV REHEAT 19, Maximum Reheat Water Flow Rate [m3/s], 1.99934E-003
 Component Sizing Information, AirTerminal:SingleDuct:VAV:Reheat, AIR TERMINAL SINGLE DUCT VAV REHEAT 19, Reheat Coil Sizing Air Volume Flow Rate [m3/s], 2.70979
 Component Sizing Information, Coil:Heating:Water, COIL HEATING WATER 20, Maximum Water Flow Rate [m3/s], 1.99934E-003
 Component Sizing Information, Coil:Heating:Water, COIL HEATING WATER 20, Design Coil Load [W], 92030.07698
 Component Sizing Information, Coil:Heating:Water, COIL HEATING WATER 20, U-Factor Times Area Value [W/K], 1927.43002
Water Heating Coil Capacity Information,Coil:Heating:Water,COIL HEATING WATER 20,87177.15
 Component Sizing Information, AirTerminal:SingleDuct:VAV:Reheat, AIR TERMINAL SINGLE DUCT VAV REHEAT 27, Maximum Air Flow Rate [m3/s], 5.17861
 Component Sizing Information, AirTerminal:SingleDuct:VAV:Reheat, AIR TERMINAL SINGLE DUCT VAV REHEAT 27, Maximum Flow per Zone Floor Area during Reheat [m3/s-m2], 2.03200E-003
 Component Sizing Information, AirTerminal:SingleDuct:VAV:Reheat, AIR TERMINAL SINGLE DUCT VAV REHEAT 27, Maximum Flow Fraction during Reheat [], 0.65399
 Component Sizing Information, AirTerminal:SingleDuct:VAV:Reheat, AIR TERMINAL SINGLE DUCT VAV REHEAT 27, Maximum Reheat Water Flow Rate [m3/s], 1.65637E-003
 Component Sizing Information, AirTerminal:SingleDuct:VAV:Reheat, AIR TERMINAL SINGLE DUCT VAV REHEAT 27, Reheat Coil Sizing Air Volume Flow Rate [m3/s], 2.24495
 Component Sizing Information, Coil:Heating:Water, COIL HEATING WATER 28, Maximum Water Flow Rate [m3/s], 1.65637E-003
 Component Sizing Information, Coil:Heating:Water, COIL HEATING WATER 28, Design Coil Load [W], 76243.35224
 Component Sizing Information, Coil:Heating:Water, COIL HEATING WATER 28, U-Factor Times Area Value [W/K], 3683.46686
Water Heating Coil Capacity Information,Coil:Heating:Water,COIL HEATING WATER 28,117557.14
 Component Sizing Information, AirTerminal:SingleDuct:VAV:Reheat, AIR TERMINAL SINGLE DUCT VAV REHEAT 42, Maximum Air Flow Rate [m3/s], 3.36000
 Component Sizing Information, AirTerminal:SingleDuct:VAV:Reheat, AIR TERMINAL SINGLE DUCT VAV REHEAT 42, Maximum Flow per Zone Floor Area during Reheat [m3/s-m2], 2.01595E-003
 Component Sizing Information, AirTerminal:SingleDuct:VAV:Reheat, AIR TERMINAL SINGLE DUCT VAV REHEAT 42, Maximum Flow Fraction during Reheat [], 1.00000
 Component Sizing Information, AirTerminal:SingleDuct:VAV:Reheat, AIR TERMINAL SINGLE DUCT VAV REHEAT 42, Maximum Reheat Water Flow Rate [m3/s], 2.24792E-003
 Component Sizing Information, AirTerminal:SingleDuct:VAV:Reheat, AIR TERMINAL SINGLE DUCT VAV REHEAT 42, Reheat Coil Sizing Air Volume Flow Rate [m3/s], 3.04670
 Component Sizing Information, Coil:Heating:Water, COIL HEATING WATER 43, Maximum Water Flow Rate [m3/s], 2.24792E-003
 Component Sizing Information, Coil:Heating:Water, COIL HEATING WATER 43, Design Coil Load [W], 103472.46289
 Component Sizing Information, Coil:Heating:Water, COIL HEATING WATER 43, U-Factor Times Area Value [W/K], 2389.91645
Water Heating Coil Capacity Information,Coil:Heating:Water,COIL HEATING WATER 43,104764.87
 Component Sizing Information, AirTerminal:SingleDuct:VAV:Reheat, AIR TERMINAL SINGLE DUCT VAV REHEAT 24, Maximum Air Flow Rate [m3/s], 4.90641
 Component Sizing Information, AirTerminal:SingleDuct:VAV:Reheat, AIR TERMINAL SINGLE DUCT VAV REHEAT 24, Maximum Flow per Zone Floor Area during Reheat [m3/s-m2], 2.03200E-003
 Component Sizing Information, AirTerminal:SingleDuct:VAV:Reheat, AIR TERMINAL SINGLE DUCT VAV REHEAT 24, Maximum Flow Fraction during Reheat [], 0.69027
 Component Sizing Information, AirTerminal:SingleDuct:VAV:Reheat, AIR TERMINAL SINGLE DUCT VAV REHEAT 24, Maximum Reheat Water Flow Rate [m3/s], 1.59138E-003
 Component Sizing Information, AirTerminal:SingleDuct:VAV:Reheat, AIR TERMINAL SINGLE DUCT VAV REHEAT 24, Reheat Coil Sizing Air Volume Flow Rate [m3/s], 2.15687
 Component Sizing Information, Coil:Heating:Water, COIL HEATING WATER 25, Maximum Water Flow Rate [m3/s], 1.59138E-003
 Component Sizing Information, Coil:Heating:Water, COIL HEATING WATER 25, Design Coil Load [W], 73251.87830
 Component Sizing Information, Coil:Heating:Water, COIL HEATING WATER 25, U-Factor Times Area Value [W/K], 3489.85896
Water Heating Coil Capacity Information,Coil:Heating:Water,COIL HEATING WATER 25,112213.66
 Component Sizing Information, AirTerminal:SingleDuct:VAV:Reheat, AIR TERMINAL SINGLE DUCT VAV REHEAT 20, Maximum Air Flow Rate [m3/s], 5.02238
 Component Sizing Information, AirTerminal:SingleDuct:VAV:Reheat, AIR TERMINAL SINGLE DUCT VAV REHEAT 20, Maximum Flow per Zone Floor Area during Reheat [m3/s-m2], 2.03200E-003
 Component Sizing Information, AirTerminal:SingleDuct:VAV:Reheat, AIR TERMINAL SINGLE DUCT VAV REHEAT 20, Maximum Flow Fraction during Reheat [], 0.67433
 Component Sizing Information, AirTerminal:SingleDuct:VAV:Reheat, AIR TERMINAL SINGLE DUCT VAV REHEAT 20, Maximum Reheat Water Flow Rate [m3/s], 1.59677E-003
 Component Sizing Information, AirTerminal:SingleDuct:VAV:Reheat, AIR TERMINAL SINGLE DUCT VAV REHEAT 20, Reheat Coil Sizing Air Volume Flow Rate [m3/s], 2.16417
 Component Sizing Information, Coil:Heating:Water, COIL HEATING WATER 21, Maximum Water Flow Rate [m3/s], 1.59677E-003
 Component Sizing Information, Coil:Heating:Water, COIL HEATING WATER 21, Design Coil Load [W], 73499.73492
 Component Sizing Information, Coil:Heating:Water, COIL HEATING WATER 21, U-Factor Times Area Value [W/K], 3572.34289
Water Heating Coil Capacity Information,Coil:Heating:Water,COIL HEATING WATER 21,113642.15
 Component Sizing Information, AirTerminal:SingleDuct:VAV:Reheat, AIR TERMINAL SINGLE DUCT VAV REHEAT 25, Maximum Air Flow Rate [m3/s], 4.34503
 Component Sizing Information, AirTerminal:SingleDuct:VAV:Reheat, AIR TERMINAL SINGLE DUCT VAV REHEAT 25, Maximum Flow per Zone Floor Area during Reheat [m3/s-m2], 2.03200E-003
[...]
 Warmup Convergence Information,THERMAL ZONE 21,SizingPeriod: SAN FRANCISCO INTL AP ANN CLG 2% CONDNS WB=>MDB,8.3794851086E-002,0.1225967471,Pass,Pass,0.1632920602,0.4190173954,Pass,Pass
 Warmup Convergence Information,THERMAL ZONE 16,SizingPeriod: SAN FRANCISCO INTL AP ANN CLG 2% CONDNS WB=>MDB,8.3594818283E-002,0.1075390294,Pass,Pass,0.4250649621,2.4960621040,Pass,Pass
 Warmup Convergence Information,THERMAL ZONE 33,SizingPeriod: SAN FRANCISCO INTL AP ANN CLG 2% CONDNS WB=>MDB,1.0390922647E-003,4.0025621899E-004,Pass,Pass,1.1293222463E-004,7.7797814039E-005,Pass,Pass
 Warmup Convergence Information,THERMAL ZONE 17,SizingPeriod: SAN FRANCISCO INTL AP ANN CLG 2% CONDNS WB=>MDB,8.3775766866E-002,0.1212749665,Pass,Pass,0.1883603325,0.5769047984,Pass,Pass
 Warmup Convergence Information,THERMAL ZONE 38,SizingPeriod: SAN FRANCISCO INTL AP ANN CLG 2% CONDNS WB=>MDB,8.3734778700E-002,0.1173067659,Pass,Pass,0.1655993277,0.4007001745,Pass,Pass
 Warmup Convergence Information,THERMAL ZONE 27,SizingPeriod: SAN FRANCISCO INTL AP ANN CLG 2% CONDNS WB=>MDB,3.0857157833E-003,6.8473786948E-003,Pass,Pass,0.5276280009,2.8456294909,Pass,Pass
 Warmup Convergence Information,THERMAL ZONE 24,SizingPeriod: SAN FRANCISCO INTL AP ANN CLG 2% CONDNS WB=>MDB,8.3664529174E-002,0.1069440065,Pass,Pass,0.1822243385,0.5363683449,Pass,Pass
 Warmup Convergence Information,THERMAL ZONE 26,SizingPeriod: SAN FRANCISCO INTL AP ANN CLG 2% CONDNS WB=>MDB,9.9044664945E-004,3.7540447463E-004,Pass,Pass,1.1014904123E-004,7.5510839606E-005,Pass,Pass
 Warmup Convergence Information,THERMAL ZONE 19,SizingPeriod: SAN FRANCISCO INTL AP ANN CLG 2% CONDNS WB=>MDB,1.4008428286E-003,6.4828979245E-004,Pass,Pass,4.1417342573E-003,1.8499559729E-002,Pass,Pass
 Warmup Convergence Information,THERMAL ZONE 8,SizingPeriod: SAN FRANCISCO INTL AP ANN CLG 2% CONDNS WB=>MDB,3.4738611169E-003,7.5349151004E-003,Pass,Pass,0.2599660933,0.7880651900,Pass,Pass
 Warmup Convergence Information,THERMAL ZONE 18,SizingPeriod: SAN FRANCISCO INTL AP ANN CLG 2% CONDNS WB=>MDB,8.3645203921E-002,0.1061296312,Pass,Pass,0.2166048548,0.8109123487,Pass,Pass
 Warmup Convergence Information,THERMAL ZONE 37,SizingPeriod: SAN FRANCISCO INTL AP ANN CLG 2% CONDNS WB=>MDB,8.3681958694E-002,0.1266058695,Pass,Pass,0.1541332419,0.3466947642,Pass,Pass
 Warmup Convergence Information,THERMAL ZONE 3,SizingPeriod: SAN FRANCISCO INTL AP ANN CLG 2% CONDNS WB=>MDB,8.3807919797E-002,0.1302780287,Pass,Pass,0.3598521018,1.8188065443,Pass,Pass
 Warmup Convergence Information,THERMAL ZONE 43,SizingPeriod: SAN FRANCISCO INTL AP ANN CLG 2% CONDNS WB=>MDB,9.1662333912E-004,1.0336147359E-003,Pass,Pass,4.2428060623E-002,3.9703561059E-002,Pass,Pass
 Warmup Convergence Information,THERMAL ZONE 5,SizingPeriod: SAN FRANCISCO INTL AP ANN CLG 2% CONDNS WB=>MDB,8.3847576113E-002,0.1296399246,Pass,Pass,0.2654376072,0.8854736444,Pass,Pass
 Warmup Convergence Information,THERMAL ZONE 10,SizingPeriod: SAN FRANCISCO INTL AP ANN CLG 2% CONDNS WB=>MDB,8.3816383051E-002,0.1303120442,Pass,Pass,0.2561531572,0.7578789458,Pass,Pass
 Warmup Convergence Information,THERMAL ZONE 12,SizingPeriod: SAN FRANCISCO INTL AP ANN CLG 2% CONDNS WB=>MDB,8.3634074949E-002,0.1066826761,Pass,Pass,0.1842204948,0.5776314325,Pass,Pass
 Warmup Convergence Information,THERMAL ZONE 34,SizingPeriod: SAN FRANCISCO INTL AP ANN CLG 2% CONDNS WB=>MDB,8.4984113286E-004,9.9488865096E-004,Pass,Pass,6.4430505189E-002,0.1004826368,Pass,Pass
 Warmup Convergence Information,THERMAL ZONE 44,SizingPeriod: SAN FRANCISCO INTL AP ANN CLG 2% CONDNS WB=>MDB,1.7960911194E-005,1.7442320479E-005,Pass,Pass,6.0277261036E-002,7.4012265587E-002,Pass,Pass
Environment,SAN FRANCISCO INTL AP ANN CLG 1% CONDNS DP=>MDB,SizingPeriod:DesignDay,08/21,08/21,SummerDesignDay,1,N/A,N/A,N/A,N/A,N/A,N/A
Environment:Daylight Saving,No,SizingPeriod:DesignDay
Environment:Design Day Data,19.20,8.50,DefaultMultipliers,101301,310,5.9,0.00,No ,No 
Environment:Design_Day_Misc,233,1106.3,0.2000,0.1216,1.0,-3.33,12.4,ASHRAETau
Environment:WarmupDays, 22
 Warmup Convergence Information,THERMAL ZONE 32,SizingPeriod: SAN FRANCISCO INTL AP ANN CLG 1% CONDNS DP=>MDB,8.3722015508E-002,0.1118811866,Pass,Pass,0.1782828092,0.4427581093,Pass,Pass
 Warmup Convergence Information,THERMAL ZONE 20,SizingPeriod: SAN FRANCISCO INTL AP ANN CLG 1% CONDNS DP=>MDB,8.3761266420E-002,0.1175547706,Pass,Pass,0.2529641794,1.0930930361,Pass,Pass
 Warmup Convergence Information,THERMAL ZONE 39,SizingPeriod: SAN FRANCISCO INTL AP ANN CLG 1% CONDNS DP=>MDB,8.3735149297E-002,0.1070359424,Pass,Pass,0.1714407142,0.4286468743,Pass,Pass
 Warmup Convergence Information,THERMAL ZONE 6,SizingPeriod: SAN FRANCISCO INTL AP ANN CLG 1% CONDNS DP=>MDB,8.3768139145E-002,0.1079268082,Pass,Pass,1.6860620087,15.0985003516,Pass,Pass
 Warmup Convergence Information,THERMAL ZONE 40,SizingPeriod: SAN FRANCISCO INTL AP ANN CLG 1% CONDNS DP=>MDB,7.5193482342E-004,7.2494733601E-004,Pass,Pass,0.4491993228,1.8098016201,Pass,Pass
 Warmup Convergence Information,THERMAL ZONE 1,SizingPeriod: SAN FRANCISCO INTL AP ANN CLG 1% CONDNS DP=>MDB,6.0361275206E-004,6.0821893270E-004,Pass,Pass,0.1639515153,0.3541567532,Pass,Pass
 Warmup Convergence Information,THERMAL ZONE 2,SizingPeriod: SAN FRANCISCO INTL AP ANN CLG 1% CONDNS DP=>MDB,5.7363278831E-004,5.3648081809E-004,Pass,Pass,0.2395107833,0.8208948110,Pass,Pass
 Warmup Convergence Information,THERMAL ZONE 23,SizingPeriod: SAN FRANCISCO INTL AP ANN CLG 1% CONDNS DP=>MDB,7.3096205283E-006,5.6280313377E-006,Pass,Pass,0.4529423370,2.6544005271,Pass,Pass
 Warmup Convergence Information,THERMAL ZONE 25,SizingPeriod: SAN FRANCISCO INTL AP ANN CLG 1% CONDNS DP=>MDB,5.2562201174E-004,5.7799447110E-004,Pass,Pass,0.2054259635,0.5759757952,Pass,Pass
 Warmup Convergence Information,THERMAL ZONE 28,SizingPeriod: SAN FRANCISCO INTL AP ANN CLG 1% CONDNS DP=>MDB,1.2812550684E-004,1.0366173328E-004,Pass,Pass,3.5542579041E-002,2.2495677282E-002,Pass,Pass
 Warmup Convergence Information,THERMAL ZONE 30,SizingPeriod: SAN FRANCISCO INTL AP ANN CLG 1% CONDNS DP=>MDB,5.6415710807E-004,5.7928148947E-004,Pass,Pass,0.1688601385,0.3762641623,Pass,Pass
 Warmup Convergence Information,THERMAL ZONE 13,SizingPeriod: SAN FRANCISCO INTL AP ANN CLG 1% CONDNS DP=>MDB,8.8998683688E-004,6.1856960074E-004,Pass,Pass,1.6753935429E-004,3.5353263312E-004,Pass,Pass
 Warmup Convergence Information,THERMAL ZONE 35,SizingPeriod: SAN FRANCISCO INTL AP ANN CLG 1% CONDNS DP=>MDB,8.4054582485E-002,0.1575738450,Pass,Pass,0.2108878497,0.7089058876,Pass,Pass
 Warmup Convergence Information,THERMAL ZONE 36,SizingPeriod: SAN FRANCISCO INTL AP ANN CLG 1% CONDNS DP=>MDB,1.6031902531E-005,1.5640556748E-005,Pass,Pass,1.7171958641E-002,1.0089218242E-002,Pass,Pass
 Warmup Convergence Information,THERMAL ZONE 15,SizingPeriod: SAN FRANCISCO INTL AP ANN CLG 1% CONDNS DP=>MDB,8.3769830839E-002,0.1329114943,Pass,Pass,0.4455743855,1.9769455903,Pass,Pass
 Warmup Convergence Information,THERMAL ZONE 29,SizingPeriod: SAN FRANCISCO INTL AP ANN CLG 1% CONDNS DP=>MDB,8.3672777744E-002,0.1018810775,Pass,Pass,0.1884816631,0.4972275806,Pass,Pass
 Warmup Convergence Information,THERMAL ZONE 22,SizingPeriod: SAN FRANCISCO INTL AP ANN CLG 1% CONDNS DP=>MDB,8.3810528348E-002,0.1327863473,Pass,Pass,0.2394896905,0.6060137678,Pass,Pass
 Warmup Convergence Information,THERMAL ZONE 14,SizingPeriod: SAN FRANCISCO INTL AP ANN CLG 1% CONDNS DP=>MDB,8.3749917971E-002,0.1167464229,Pass,Pass,0.1855360364,0.5409424362,Pass,Pass
 Warmup Convergence Information,THERMAL ZONE 7,SizingPeriod: SAN FRANCISCO INTL AP ANN CLG 1% CONDNS DP=>MDB,8.3863641727E-002,0.1327755955,Pass,Pass,0.2212048546,0.4911941296,Pass,Pass
 Warmup Convergence Information,THERMAL ZONE 9,SizingPeriod: SAN FRANCISCO INTL AP ANN CLG 1% CONDNS DP=>MDB,8.3950119789E-002,0.1365814289,Pass,Pass,0.2559416228,0.7387388577,Pass,Pass
 Warmup Convergence Information,THERMAL ZONE 4,SizingPeriod: SAN FRANCISCO INTL AP ANN CLG 1% CONDNS DP=>MDB,6.9468913316E-002,0.1215136368,Pass,Pass,0.1567648435,0.4215523742,Pass,Pass
 Warmup Convergence Information,THERMAL ZONE 41,SizingPeriod: SAN FRANCISCO INTL AP ANN CLG 1% CONDNS DP=>MDB,8.3976219606E-002,0.1350256846,Pass,Pass,0.2370035285,0.5730566888,Pass,Pass
 Warmup Convergence Information,THERMAL ZONE 45,SizingPeriod: SAN FRANCISCO INTL AP ANN CLG 1% CONDNS DP=>MDB,5.8747918029E-004,5.4051673843E-004,Pass,Pass,0.1721387507,0.3411747150,Pass,Pass
 Warmup Convergence Information,THERMAL ZONE 31,SizingPeriod: SAN FRANCISCO INTL AP ANN CLG 1% CONDNS DP=>MDB,8.3820849184E-002,0.1135392091,Pass,Pass,0.2279059558,0.8423996906,Pass,Pass
 Warmup Convergence Information,THERMAL ZONE 11,SizingPeriod: SAN FRANCISCO INTL AP ANN CLG 1% CONDNS DP=>MDB,8.4079623611E-002,0.1924690802,Pass,Pass,0.2026937016,0.8301890683,Pass,Pass
 Warmup Convergence Information,THERMAL ZONE 42,SizingPeriod: SAN FRANCISCO INTL AP ANN CLG 1% CONDNS DP=>MDB,8.3700547387E-002,0.1160658540,Pass,Pass,0.1670179170,0.4224253776,Pass,Pass
 Warmup Convergence Information,THERMAL ZONE 21,SizingPeriod: SAN FRANCISCO INTL AP ANN CLG 1% CONDNS DP=>MDB,8.3845896135E-002,0.1151600766,Pass,Pass,0.1701921727,0.4512185066,Pass,Pass
 Warmup Convergence Information,THERMAL ZONE 16,SizingPeriod: SAN FRANCISCO INTL AP ANN CLG 1% CONDNS DP=>MDB,8.3757095787E-002,0.1087570363,Pass,Pass,0.1782578728,0.4428147837,Pass,Pass
 Warmup Convergence Information,THERMAL ZONE 33,SizingPeriod: SAN FRANCISCO INTL AP ANN CLG 1% CONDNS DP=>MDB,1.0124163441E-003,4.1582685247E-004,Pass,Pass,2.0535877891E-004,3.7786424784E-004,Pass,Pass
 Warmup Convergence Information,THERMAL ZONE 17,SizingPeriod: SAN FRANCISCO INTL AP ANN CLG 1% CONDNS DP=>MDB,8.3738039275E-002,0.1145747234,Pass,Pass,1.4587152157,12.7832316684,Pass,Pass
 Warmup Convergence Information,THERMAL ZONE 38,SizingPeriod: SAN FRANCISCO INTL AP ANN CLG 1% CONDNS DP=>MDB,8.3427913945E-002,0.1073962833,Pass,Pass,0.2328570832,0.7943879284,Pass,Pass
 Warmup Convergence Information,THERMAL ZONE 27,SizingPeriod: SAN FRANCISCO INTL AP ANN CLG 1% CONDNS DP=>MDB,4.4621013761E-004,4.0261363411E-004,Pass,Pass,0.2368594744,0.8641025967,Pass,Pass
 Warmup Convergence Information,THERMAL ZONE 24,SizingPeriod: SAN FRANCISCO INTL AP ANN CLG 1% CONDNS DP=>MDB,8.3721349375E-002,0.1083950271,Pass,Pass,0.2978037807,1.5874350362,Pass,Pass
 Warmup Convergence Information,THERMAL ZONE 26,SizingPeriod: SAN FRANCISCO INTL AP ANN CLG 1% CONDNS DP=>MDB,9.4410777707E-004,3.8405843533E-004,Pass,Pass,1.9228796358E-004,3.6809145760E-004,Pass,Pass
 Warmup Convergence Information,THERMAL ZONE 19,SizingPeriod: SAN FRANCISCO INTL AP ANN CLG 1% CONDNS DP=>MDB,3.2911107291E-004,6.1479934016E-004,Pass,Pass,0.6173793663,4.3558360842,Pass,Pass
 Warmup Convergence Information,THERMAL ZONE 8,SizingPeriod: SAN FRANCISCO INTL AP ANN CLG 1% CONDNS DP=>MDB,5.9180062302E-004,6.7121082084E-004,Pass,Pass,0.3803581962,2.2240715595,Pass,Pass
 Warmup Convergence Information,THERMAL ZONE 18,SizingPeriod: SAN FRANCISCO INTL AP ANN CLG 1% CONDNS DP=>MDB,8.3833144937E-002,0.1064802329,Pass,Pass,0.1927218666,0.5619558081,Pass,Pass
 Warmup Convergence Information,THERMAL ZONE 37,SizingPeriod: SAN FRANCISCO INTL AP ANN CLG 1% CONDNS DP=>MDB,8.3849918291E-002,0.1187215199,Pass,Pass,0.2467077791,0.8940091819,Pass,Pass
 Warmup Convergence Information,THERMAL ZONE 3,SizingPeriod: SAN FRANCISCO INTL AP ANN CLG 1% CONDNS DP=>MDB,8.3837039033E-002,0.1340749888,Pass,Pass,0.4072946595,1.7505246509,Pass,Pass
 Warmup Convergence Information,THERMAL ZONE 43,SizingPeriod: SAN FRANCISCO INTL AP ANN CLG 1% CONDNS DP=>MDB,2.3932772497E-003,6.6965012737E-003,Pass,Pass,3.2811001308E-002,3.3330717891E-002,Pass,Pass
 Warmup Convergence Information,THERMAL ZONE 5,SizingPeriod: SAN FRANCISCO INTL AP ANN CLG 1% CONDNS DP=>MDB,8.3742644173E-002,0.1335097523,Pass,Pass,0.2453335149,0.6388650609,Pass,Pass
 Warmup Convergence Information,THERMAL ZONE 10,SizingPeriod: SAN FRANCISCO INTL AP ANN CLG 1% CONDNS DP=>MDB,8.3764041006E-002,0.1347601666,Pass,Pass,0.2714448952,0.8050023848,Pass,Pass
 Warmup Convergence Information,THERMAL ZONE 12,SizingPeriod: SAN FRANCISCO INTL AP ANN CLG 1% CONDNS DP=>MDB,8.3748747706E-002,0.1073267045,Pass,Pass,0.1976651387,0.6650373623,Pass,Pass
 Warmup Convergence Information,THERMAL ZONE 34,SizingPeriod: SAN FRANCISCO INTL AP ANN CLG 1% CONDNS DP=>MDB,1.1158377286E-004,2.6102915624E-004,Pass,Pass,0.2391300150,0.6827284750,Pass,Pass
 Warmup Convergence Information,THERMAL ZONE 44,SizingPeriod: SAN FRANCISCO INTL AP ANN CLG 1% CONDNS DP=>MDB,2.6879247741E-005,2.3543017019E-005,Pass,Pass,9.0291404531E-003,8.1608096942E-003,Pass,Pass
Environment,RUN PERIOD 1,WeatherFileRunPeriod,01/01,12/31,Thursday,365,Use RunPeriod Specified Day,Yes,Yes,No ,Yes,Yes
Environment:Daylight Saving,Yes,InputFile,03/08,11/01
Environment:WarmupDays,  9
 Warmup Convergence Information,THERMAL ZONE 32,RunPeriod: RUN PERIOD 1,8.3974038569E-002,0.1205711722,Pass,Pass,0.1963179557,0.5073003540,Pass,Pass
 Warmup Convergence Information,THERMAL ZONE 20,RunPeriod: RUN PERIOD 1,3.9196005281E-003,1.1733521151E-002,Pass,Pass,0.7066842259,5.3487402947,Pass,Pass
 Warmup Convergence Information,THERMAL ZONE 39,RunPeriod: RUN PERIOD 1,8.3927450316E-002,0.1192556281,Pass,Pass,0.2719842524,1.0013102048,Pass,Pass
 Warmup Convergence Information,THERMAL ZONE 6,RunPeriod: RUN PERIOD 1,8.3980227046E-002,0.1190778915,Pass,Pass,0.2376154819,0.8319341837,Pass,Pass
 Warmup Convergence Information,THERMAL ZONE 40,RunPeriod: RUN PERIOD 1,1.0256367271E-002,1.6518049887E-002,Pass,Pass,1.8705828670E-002,2.0241618938E-002,Pass,Pass
 Warmup Convergence Information,THERMAL ZONE 1,RunPeriod: RUN PERIOD 1,5.4213324629E-003,9.7794507191E-003,Pass,Pass,2.3609050579E-002,2.1761946453E-002,Pass,Pass
 Warmup Convergence Information,THERMAL ZONE 2,RunPeriod: RUN PERIOD 1,6.3542873873E-003,1.2148820703E-002,Pass,Pass,2.3493292786E-002,2.2581172536E-002,Pass,Pass
 Warmup Convergence Information,THERMAL ZONE 23,RunPeriod: RUN PERIOD 1,3.2073493401E-005,2.1216060199E-005,Pass,Pass,7.9627549267E-003,6.1225267801E-003,Pass,Pass
 Warmup Convergence Information,THERMAL ZONE 25,RunPeriod: RUN PERIOD 1,5.9551104963E-003,1.1483293471E-002,Pass,Pass,2.4051734557E-002,2.2977209945E-002,Pass,Pass
 Warmup Convergence Information,THERMAL ZONE 28,RunPeriod: RUN PERIOD 1,3.4795795003E-004,2.5111712134E-004,Pass,Pass,1.2148494969E-002,7.9517414231E-003,Pass,Pass
 Warmup Convergence Information,THERMAL ZONE 30,RunPeriod: RUN PERIOD 1,8.0072050338E-003,1.4352245303E-002,Pass,Pass,2.1829974367E-002,2.1498564408E-002,Pass,Pass
 Warmup Convergence Information,THERMAL ZONE 13,RunPeriod: RUN PERIOD 1,8.4483697040E-004,6.9966092907E-004,Pass,Pass,2.6974516425E-004,2.6570028855E-004,Pass,Pass
 Warmup Convergence Information,THERMAL ZONE 35,RunPeriod: RUN PERIOD 1,1.5166806726E-002,3.9988788266E-002,Pass,Pass,2.9183665780,27.2286605537,Pass,Pass
 Warmup Convergence Information,THERMAL ZONE 36,RunPeriod: RUN PERIOD 1,7.1674844775E-004,6.4125765193E-004,Pass,Pass,3.1559400254E-004,2.9737780129E-004,Pass,Pass
 Warmup Convergence Information,THERMAL ZONE 15,RunPeriod: RUN PERIOD 1,2.1221901280E-003,6.3155035806E-003,Pass,Pass,0.2159301566,0.5958639143,Pass,Pass
 Warmup Convergence Information,THERMAL ZONE 29,RunPeriod: RUN PERIOD 1,8.3996658120E-002,0.1211315748,Pass,Pass,0.7613207346,5.2555117485,Pass,Pass
 Warmup Convergence Information,THERMAL ZONE 22,RunPeriod: RUN PERIOD 1,2.1351952758E-003,5.8153133187E-003,Pass,Pass,1.1773536020,9.8240338715,Pass,Pass
 Warmup Convergence Information,THERMAL ZONE 14,RunPeriod: RUN PERIOD 1,3.7792278456E-003,1.1026701849E-002,Pass,Pass,0.2051960149,0.7091644724,Pass,Pass
 Warmup Convergence Information,THERMAL ZONE 7,RunPeriod: RUN PERIOD 1,2.0542678041E-003,4.8725452900E-003,Pass,Pass,0.2143476257,0.6046883085,Pass,Pass
 Warmup Convergence Information,THERMAL ZONE 9,RunPeriod: RUN PERIOD 1,1.5003143818E-003,1.1208793378E-003,Pass,Pass,0.2279975872,0.7695604360,Pass,Pass
 Warmup Convergence Information,THERMAL ZONE 4,RunPeriod: RUN PERIOD 1,9.3438733407E-002,0.1697613515,Pass,Pass,0.3313304798,1.5891047338,Pass,Pass
 Warmup Convergence Information,THERMAL ZONE 41,RunPeriod: RUN PERIOD 1,1.3926172311E-003,1.0236653056E-003,Pass,Pass,0.2340916901,0.7322495253,Pass,Pass
 Warmup Convergence Information,THERMAL ZONE 45,RunPeriod: RUN PERIOD 1,3.6944931810E-003,7.1303490523E-003,Pass,Pass,1.9650779482E-002,1.6668719582E-002,Pass,Pass
 Warmup Convergence Information,THERMAL ZONE 31,RunPeriod: RUN PERIOD 1,1.2637466445E-003,1.1639793393E-003,Pass,Pass,0.2454633672,0.8890133460,Pass,Pass
 Warmup Convergence Information,THERMAL ZONE 11,RunPeriod: RUN PERIOD 1,5.5760914804E-003,9.7163680512E-003,Pass,Pass,0.2055773160,0.9172616553,Pass,Pass
 Warmup Convergence Information,THERMAL ZONE 42,RunPeriod: RUN PERIOD 1,3.4788534776E-003,9.8127949317E-003,Pass,Pass,0.2273163741,0.9303943206,Pass,Pass
 Warmup Convergence Information,THERMAL ZONE 21,RunPeriod: RUN PERIOD 1,3.0242646134E-003,8.6200618714E-003,Pass,Pass,0.2543472256,1.2282164487,Pass,Pass
 Warmup Convergence Information,THERMAL ZONE 16,RunPeriod: RUN PERIOD 1,8.3894999417E-002,0.1186758474,Pass,Pass,1.5788734248,13.0846278376,Pass,Pass
 Warmup Convergence Information,THERMAL ZONE 33,RunPeriod: RUN PERIOD 1,6.7355655642E-004,5.5606930961E-004,Pass,Pass,3.0712344577E-004,2.9162926173E-004,Pass,Pass
 Warmup Convergence Information,THERMAL ZONE 17,RunPeriod: RUN PERIOD 1,2.4872433021E-003,6.6079912311E-003,Pass,Pass,0.2322971610,0.9891827151,Pass,Pass
 Warmup Convergence Information,THERMAL ZONE 38,RunPeriod: RUN PERIOD 1,1.1082798633E-003,1.0340670043E-003,Pass,Pass,0.2148917077,0.7044225472,Pass,Pass
 Warmup Convergence Information,THERMAL ZONE 27,RunPeriod: RUN PERIOD 1,7.0511589985E-003,1.3412628153E-002,Pass,Pass,2.2823834691E-002,2.2568898953E-002,Pass,Pass
 Warmup Convergence Information,THERMAL ZONE 24,RunPeriod: RUN PERIOD 1,8.3889799194E-002,0.1187746574,Pass,Pass,0.2717733621,1.0564464365,Pass,Pass
 Warmup Convergence Information,THERMAL ZONE 26,RunPeriod: RUN PERIOD 1,6.6443523746E-004,4.7674217063E-004,Pass,Pass,2.9224366522E-004,2.8327683246E-004,Pass,Pass
 Warmup Convergence Information,THERMAL ZONE 19,RunPeriod: RUN PERIOD 1,7.7157146815E-004,6.0313201962E-004,Pass,Pass,3.2445202048E-004,3.0361330011E-004,Pass,Pass
 Warmup Convergence Information,THERMAL ZONE 8,RunPeriod: RUN PERIOD 1,5.5891344274E-003,1.0880417103E-002,Pass,Pass,2.4159688684E-002,2.2972225412E-002,Pass,Pass
 Warmup Convergence Information,THERMAL ZONE 18,RunPeriod: RUN PERIOD 1,8.3958999993E-002,0.1188974618,Pass,Pass,0.4461217224,2.7844966684,Pass,Pass
 Warmup Convergence Information,THERMAL ZONE 37,RunPeriod: RUN PERIOD 1,3.0451541781E-003,7.9740583349E-003,Pass,Pass,0.2241700838,0.8494341257,Pass,Pass
 Warmup Convergence Information,THERMAL ZONE 3,RunPeriod: RUN PERIOD 1,1.5775861552E-003,2.5853414277E-003,Pass,Pass,0.2109181413,0.5551353554,Pass,Pass
 Warmup Convergence Information,THERMAL ZONE 43,RunPeriod: RUN PERIOD 1,1.7002224507E-002,2.2086939036E-002,Pass,Pass,1.0756281214E-002,1.4462619364E-002,Pass,Pass
 Warmup Convergence Information,THERMAL ZONE 5,RunPeriod: RUN PERIOD 1,1.6496691174E-003,3.8728978242E-003,Pass,Pass,0.2115967578,0.5512634004,Pass,Pass
 Warmup Convergence Information,THERMAL ZONE 10,RunPeriod: RUN PERIOD 1,1.9769700228E-003,4.1344748941E-003,Pass,Pass,0.2441372667,0.8702843276,Pass,Pass
 Warmup Convergence Information,THERMAL ZONE 12,RunPeriod: RUN PERIOD 1,8.3921459781E-002,0.1193471180,Pass,Pass,0.2289092390,0.7472946083,Pass,Pass
 Warmup Convergence Information,THERMAL ZONE 34,RunPeriod: RUN PERIOD 1,7.4172840563E-004,6.6017881801E-004,Pass,Pass,3.2072537809E-004,3.0135080162E-004,Pass,Pass
 Warmup Convergence Information,THERMAL ZONE 44,RunPeriod: RUN PERIOD 1,8.7494464970E-005,6.0421444232E-005,Pass,Pass,5.0365380504E-003,4.0131273522E-003,Pass,Pass
