Program Version,EnergyPlus-Linux-OMP-32 7.2.0.006, YMD=2013.03.07 19:22
! <Version>, Version ID
 Version, 7.2
! <Timesteps per Hour>, #TimeSteps, Minutes per TimeStep {minutes}
 Timesteps per Hour,  4, 15
! <System Convergence Limits>, Minimum System TimeStep {minutes}, Max HVAC Iterations,  Minimum Plant Iterations, Maximum Plant Iterations
 System Convergence Limits, 1, 20, 2, 8
! <Simulation Control>, Do Zone Sizing, Do System Sizing, Do Plant Sizing, Do Design Days, Do Weather Simulation
 Simulation Control, Yes, Yes, Yes, Yes, Yes
! <Output Reporting Tolerances>, Tolerance for Time Heating Setpoint Not Met, Tolerance for Time Cooling Setpoint Not Met
 Output Reporting Tolerances, 0.200, 0.200, 
! <Site:GroundTemperature:BuildingSurface>, Months From Jan to Dec {Deg C}
 Site:GroundTemperature:BuildingSurface,  18.00,  18.00,  18.00,  18.00,  18.00,  18.00,  18.00,  18.00,  18.00,  18.00,  18.00,  18.00
! <Site:GroundTemperature:FCfactorMethod>, Months From Jan to Dec {Deg C}
 Site:GroundTemperature:FCfactorMethod,  10.86,  10.57,  11.08,  11.88,  13.97,  15.58,  16.67,  17.00,  16.44,  15.19,  13.51,  11.96
! <Site:GroundTemperature:Shallow>, Months From Jan to Dec {Deg C}
 Site:GroundTemperature:Shallow,  13.00,  13.00,  13.00,  13.00,  13.00,  13.00,  13.00,  13.00,  13.00,  13.00,  13.00,  13.00
! <Site:GroundTemperature:Deep>, Months From Jan to Dec {Deg C}
 Site:GroundTemperature:Deep,  16.00,  16.00,  16.00,  16.00,  16.00,  16.00,  16.00,  16.00,  16.00,  16.00,  16.00,  16.00
! <Site:GroundReflectance>, Months From Jan to Dec {dimensionless}
 Site:GroundReflectance,  0.20,  0.20,  0.20,  0.20,  0.20,  0.20,  0.20,  0.20,  0.20,  0.20,  0.20,  0.20
! <Site:GroundReflectance:SnowModifier>, Normal, Daylighting {dimensionless}
 Site:GroundReflectance:SnowModifier,   1.000,   1.000
! <Site:GroundReflectance:Snow>, Months From Jan to Dec {dimensionless}
 Site:GroundReflectance:Snow,  0.20,  0.20,  0.20,  0.20,  0.20,  0.20,  0.20,  0.20,  0.20,  0.20,  0.20,  0.20
! <Site:GroundReflectance:Snow:Daylighting>, Months From Jan to Dec {dimensionless}
 Site:GroundReflectance:Snow:Daylighting,  0.20,  0.20,  0.20,  0.20,  0.20,  0.20,  0.20,  0.20,  0.20,  0.20,  0.20,  0.20
! <Environment:Weather Station>,Wind Sensor Height Above Ground {m},Wind Speed Profile Exponent {},Wind Speed Profile Boundary Layer Thickness {m},Air Temperature Sensor Height Above Ground {m},Wind Speed Modifier Coefficient [Internal],Temperature Modifier Coefficient [Internal]
Environment:Weather Station,10.000,0.140,270.000,1.500,1.586,9.750E-003
! <Site:Location>, Location Name, Latitude {N+/S- Deg}, Longitude {E+/W- Deg},  Time Zone Number {GMT+/-}, Elevation {m},  Standard Pressure at Elevation {Pa}, Standard RhoAir at Elevation
Site:Location,San Francisco Intl Ap CA USA TMY3 WMO#=724940,37.62,-122.40,-8.00,2.00,101301,1.2040
! <Building Information>, Building Name,North Axis {deg},Terrain,  Loads Convergence Tolerance Value,Temperature Convergence Tolerance Value,  Solar Distribution,Maximum Number of Warmup Days,Minimum Number of Warmup Days
 Building Information,Building 1,0.000,Suburbs,4.00000E-002,0.40000,FullExterior,25,6
! <Inside Convection Algorithm>, Algorithm {Simple | TARP | CeilingDiffuser | AdaptiveConvectionAlgorithm}
Inside Convection Algorithm,TARP
! <Outside Convection Algorithm>, Algorithm {SimpleCombined | TARP | MoWitt | DOE-2 | AdaptiveConvectionAlgorithm}
Outside Convection Algorithm,DOE-2
! <Sky Radiance Distribution>, Value {Anisotropic}
Sky Radiance Distribution,Anisotropic
! <Zone Air Solution Algorithm>, Value {ThirdOrderBackwardDifference | AnalyticalSolution | EulerMethod}
 Zone Air Solution Algorithm, ThirdOrderBackwardDifference
! <Zone Air Contaminant Balance Simulation>, Simulation {Yes/No}, Carbon Dioxide Concentration
 Zone Air Carbon Dioxide Balance Simulation, No,N/A
! <Zone Air Contaminant Balance Simulation>, Simulation {Yes/No}, Generic Contaminant Concentration
 Zone Air Generic Contaminant Balance Simulation, No,N/A
! <Environment:Site Atmospheric Variation>,Wind Speed Profile Exponent {},Wind Speed Profile Boundary Layer Thickness {m},Air Temperature Gradient Coefficient {K/m}
Environment:Site Atmospheric Variation,0.220,370.000,6.500000E-003
! <SurfaceGeometry>,Starting Corner,Vertex Input Direction,Coordinate System,Daylight Reference Point Coordinate System,Rectangular (Simple) Surface Coordinate System
 Surface Geometry,UpperLeftCorner,Counterclockwise,RelativeCoordinateSystem,RelativeCoordinateSystem,RelativeToZoneOrigin
! <Surface Heat Transfer Algorithm>, Value {CTF - ConductionTransferFunction | EMPD - MoisturePenetrationDepthConductionTransferFunction | CondFD - ConductionFiniteDifference | HAMT - CombinedHeatAndMoistureFiniteElement} - Description,Inside Surface Max Temperature Limit{C}, Surface Convection Coefficient Lower Limit {W/m2-K}, Surface Convection Coefficient Upper Limit {W/m2-K}
Surface Heat Transfer Algorithm, CTF - ConductionTransferFunction,200,0.10,1000.0
! <Shading Summary>, Number of Fixed Detached Shades, Number of Building Detached Shades, Number of Attached Shades
 Shading Summary,0,0,0
! <Zone Summary>, Number of Zones, Number of Zone Surfaces, Number of SubSurfaces
 Zone Summary,15,102,12
! <Zone Information>,Zone Name,North Axis {deg},Origin X-Coordinate {m},Origin Y-Coordinate {m},Origin Z-Coordinate {m},Centroid X-Coordinate {m},Centroid Y-Coordinate {m},Centroid Z-Coordinate {m},Type,Zone Multiplier,Zone List Multiplier,Minimum X {m},Maximum X {m},Minimum Y {m},Maximum Y {m},Minimum Z {m},Maximum Z {m},Ceiling Height {m},Volume {m3},Zone Inside Convection Algorithm {Simple-Detailed-CeilingDiffuser-TrombeWall},Zone Outside Convection Algorithm {Simple-Detailed-Tarp-MoWitt-DOE-2-BLAST}, Floor Area {m2},Exterior Gross Wall Area {m2},Exterior Net Wall Area {m2},Exterior Window Area {m2}, Number of Surfaces, Number of SubSurfaces, Number of Shading SubSurfaces,  Part of Total Building Area
 Zone Information, THERMAL ZONE 14,0.0,0.00,0.00,0.00,86.60,1.48,2.00,1,1,1,0.00,173.21,0.00,3.00,0.00,4.00,4.00,2042.46,TARP,DOE-2,510.62,692.82,450.33,242.49,6,1,0,Yes
 Zone Information, THERMAL ZONE 2,0.0,170.21,3.00,8.00,171.72,86.60,10.00,1,1,1,170.21,173.21,0.00,173.21,8.00,12.00,4.00,2042.46,TARP,DOE-2,510.62,692.82,450.33,242.49,6,1,0,Yes
 Zone Information, THERMAL ZONE 5,0.0,3.00,170.21,8.00,86.60,171.72,10.00,1,1,1,0.00,173.21,170.21,173.21,8.00,12.00,4.00,2042.46,TARP,DOE-2,510.62,692.82,450.33,242.49,6,1,0,Yes
 Zone Information, THERMAL ZONE 15,0.0,3.00,3.00,4.00,86.60,86.60,6.00,1,1,1,3.00,170.21,3.00,170.21,4.00,8.00,4.00,111830.16,TARP,DOE-2,27957.54,0.00,0.00,0.00,6,0,0,Yes
 Zone Information, THERMAL ZONE 9,0.0,170.21,3.00,4.00,171.72,86.60,6.00,1,1,1,170.21,173.21,0.00,173.21,4.00,8.00,4.00,2042.46,TARP,DOE-2,510.62,692.82,450.33,242.49,6,1,0,Yes
 Zone Information, THERMAL ZONE 11,0.0,0.00,0.00,4.00,86.60,1.48,6.00,1,1,1,0.00,173.21,0.00,3.00,4.00,8.00,4.00,2042.46,TARP,DOE-2,510.62,692.82,450.33,242.49,6,1,0,Yes
 Zone Information, THERMAL ZONE 13,0.0,0.00,0.00,4.00,1.48,86.60,6.00,1,1,1,0.00,3.00,0.00,173.21,4.00,8.00,4.00,2042.46,TARP,DOE-2,510.62,692.82,450.33,242.49,6,1,0,Yes
 Zone Information, THERMAL ZONE 12,0.0,3.00,3.00,0.00,86.60,86.60,2.00,1,1,1,3.00,170.21,3.00,170.21,0.00,4.00,4.00,111830.16,TARP,DOE-2,27957.54,0.00,0.00,0.00,6,0,0,Yes
 Zone Information, THERMAL ZONE 8,0.0,3.00,3.00,8.00,86.60,86.60,10.00,1,1,1,3.00,170.21,3.00,170.21,8.00,12.00,4.00,111830.16,TARP,DOE-2,27957.54,0.00,0.00,0.00,6,0,0,Yes
 Zone Information, THERMAL ZONE 10,0.0,3.00,170.21,0.00,86.60,171.72,2.00,1,1,1,0.00,173.21,170.21,173.21,0.00,4.00,4.00,2042.46,TARP,DOE-2,510.62,692.82,450.33,242.49,6,1,0,Yes
 Zone Information, THERMAL ZONE 1,0.0,0.00,0.00,8.00,1.48,86.60,10.00,1,1,1,0.00,3.00,0.00,173.21,8.00,12.00,4.00,2042.46,TARP,DOE-2,510.62,692.82,450.33,242.49,6,1,0,Yes
 Zone Information, THERMAL ZONE 7,0.0,3.00,170.21,4.00,86.60,171.72,6.00,1,1,1,0.00,173.21,170.21,173.21,4.00,8.00,4.00,2042.46,TARP,DOE-2,510.62,692.82,450.33,242.49,6,1,0,Yes
 Zone Information, THERMAL ZONE 6,0.0,0.00,0.00,0.00,1.48,86.60,2.00,1,1,1,0.00,3.00,0.00,173.21,0.00,4.00,4.00,2042.46,TARP,DOE-2,510.62,692.82,450.33,242.49,6,1,0,Yes
 Zone Information, THERMAL ZONE 4,0.0,170.21,3.00,0.00,171.72,86.60,2.00,1,1,1,170.21,173.21,0.00,173.21,0.00,4.00,4.00,2042.46,TARP,DOE-2,510.62,692.82,450.33,242.49,6,1,0,Yes
 Zone Information, THERMAL ZONE 3,0.0,0.00,0.00,8.00,86.60,1.48,10.00,1,1,1,0.00,173.21,0.00,3.00,8.00,12.00,4.00,2042.46,TARP,DOE-2,510.62,692.82,450.33,242.49,6,1,0,Yes
! <Zone Internal Gains/Equipment Information - Nominal>,Zone Name, Floor Area {m2},# Occupants,Area per Occupant {m2/person},Occupant per Area {person/m2},Interior Lighting {W/m2},Electric Load {W/m2},Gas Load {W/m2},Other Load {W/m2},Hot Water Eq {W/m2},Steam Equipment {W/m2},Sum Loads per Area {W/m2},Outdoor Controlled Baseboard Heat
 Zone Internal Gains, THERMAL ZONE 14,510.62,0.0,N/A,0.000,0.000,0.000,0.000,0.000,0.000,0.000,0.000,No
 Zone Internal Gains, THERMAL ZONE 2,510.62,0.0,N/A,0.000,0.000,0.000,0.000,0.000,0.000,0.000,0.000,No
 Zone Internal Gains, THERMAL ZONE 5,510.62,0.0,N/A,0.000,0.000,0.000,0.000,0.000,0.000,0.000,0.000,No
 Zone Internal Gains, THERMAL ZONE 15,27957.54,0.0,N/A,0.000,0.000,0.000,0.000,0.000,0.000,0.000,0.000,No
 Zone Internal Gains, THERMAL ZONE 9,510.62,0.0,N/A,0.000,0.000,0.000,0.000,0.000,0.000,0.000,0.000,No
 Zone Internal Gains, THERMAL ZONE 11,510.62,0.0,N/A,0.000,0.000,0.000,0.000,0.000,0.000,0.000,0.000,No
 Zone Internal Gains, THERMAL ZONE 13,510.62,0.0,N/A,0.000,0.000,0.000,0.000,0.000,0.000,0.000,0.000,No
 Zone Internal Gains, THERMAL ZONE 12,27957.54,0.0,N/A,0.000,0.000,0.000,0.000,0.000,0.000,0.000,0.000,No
 Zone Internal Gains, THERMAL ZONE 8,27957.54,0.0,N/A,0.000,0.000,0.000,0.000,0.000,0.000,0.000,0.000,No
 Zone Internal Gains, THERMAL ZONE 10,510.62,0.0,N/A,0.000,0.000,0.000,0.000,0.000,0.000,0.000,0.000,No
 Zone Internal Gains, THERMAL ZONE 1,510.62,0.0,N/A,0.000,0.000,0.000,0.000,0.000,0.000,0.000,0.000,No
 Zone Internal Gains, THERMAL ZONE 7,510.62,0.0,N/A,0.000,0.000,0.000,0.000,0.000,0.000,0.000,0.000,No
 Zone Internal Gains, THERMAL ZONE 6,510.62,0.0,N/A,0.000,0.000,0.000,0.000,0.000,0.000,0.000,0.000,No
 Zone Internal Gains, THERMAL ZONE 4,510.62,0.0,N/A,0.000,0.000,0.000,0.000,0.000,0.000,0.000,0.000,No
 Zone Internal Gains, THERMAL ZONE 3,510.62,0.0,N/A,0.000,0.000,0.000,0.000,0.000,0.000,0.000,0.000,No
! <Shadowing/Sun Position Calculations> [Annual Simulations], Value {days}, Allowable Number Figures in Shadow Overlap {}, Polygon Clipping Algorithm, Sky Diffuse Modeling Algorithm
Shadowing/Sun Position Calculations,20,15000,SutherlandHodgman,SimpleSkyDiffuseModeling
! <RoomAir Model>, Zone Name, Mixing/Mundt/UCSDDV/UCSDCV/UCSDUFI/UCSDUFE/User Defined
RoomAir Model,THERMAL ZONE 14,Mixing/Well-Stirred
RoomAir Model,THERMAL ZONE 2,Mixing/Well-Stirred
RoomAir Model,THERMAL ZONE 5,Mixing/Well-Stirred
RoomAir Model,THERMAL ZONE 15,Mixing/Well-Stirred
RoomAir Model,THERMAL ZONE 9,Mixing/Well-Stirred
RoomAir Model,THERMAL ZONE 11,Mixing/Well-Stirred
RoomAir Model,THERMAL ZONE 13,Mixing/Well-Stirred
RoomAir Model,THERMAL ZONE 12,Mixing/Well-Stirred
RoomAir Model,THERMAL ZONE 8,Mixing/Well-Stirred
RoomAir Model,THERMAL ZONE 10,Mixing/Well-Stirred
RoomAir Model,THERMAL ZONE 1,Mixing/Well-Stirred
RoomAir Model,THERMAL ZONE 7,Mixing/Well-Stirred
RoomAir Model,THERMAL ZONE 6,Mixing/Well-Stirred
RoomAir Model,THERMAL ZONE 4,Mixing/Well-Stirred
RoomAir Model,THERMAL ZONE 3,Mixing/Well-Stirred
! <AirflowNetwork Model:Control>, No Multizone or Distribution/Multizone with Distribution/Multizone without Distribution/Multizone with Distribution only during Fan Operation
AirflowNetwork Model:Control,NoMultizoneOrDistribution
! <Zone Volume Capacitance Multiplier>, Sensible Heat Capacity Multiplier, Moisture Capacity Multiplier, Carbon Dioxide Capacity Multiplier, Generic Contaminant Capacity Multiplier
Zone Volume Capacitance Multiplier,   1.000 ,   1.000,   1.000,   1.000
! <Load Timesteps in Zone Design Calculation Averaging Window>, Value
 Load Timesteps in Zone Design Calculation Averaging Window,    4
! <Heating Sizing Factor Information>, Sizing Factor ID, Value
 Heating Sizing Factor Information, Global,   1.2500    
 Heating Sizing Factor Information, Zone THERMAL ZONE 14,   1.2500    
 Heating Sizing Factor Information, Zone THERMAL ZONE 2,   1.2500    
 Heating Sizing Factor Information, Zone THERMAL ZONE 5,   1.2500    
 Heating Sizing Factor Information, Zone THERMAL ZONE 15,   1.2500    
 Heating Sizing Factor Information, Zone THERMAL ZONE 9,   1.2500    
 Heating Sizing Factor Information, Zone THERMAL ZONE 11,   1.2500    
 Heating Sizing Factor Information, Zone THERMAL ZONE 13,   1.2500    
 Heating Sizing Factor Information, Zone THERMAL ZONE 12,   1.2500    
 Heating Sizing Factor Information, Zone THERMAL ZONE 8,   1.2500    
 Heating Sizing Factor Information, Zone THERMAL ZONE 10,   1.2500    
 Heating Sizing Factor Information, Zone THERMAL ZONE 1,   1.2500    
 Heating Sizing Factor Information, Zone THERMAL ZONE 7,   1.2500    
 Heating Sizing Factor Information, Zone THERMAL ZONE 6,   1.2500    
 Heating Sizing Factor Information, Zone THERMAL ZONE 4,   1.2500    
 Heating Sizing Factor Information, Zone THERMAL ZONE 3,   1.2500    
! <Cooling Sizing Factor Information>, Sizing Factor ID, Value
 Cooling Sizing Factor Information, Global,   1.1500    
 Cooling Sizing Factor Information, Zone THERMAL ZONE 14,   1.1500    
 Cooling Sizing Factor Information, Zone THERMAL ZONE 2,   1.1500    
 Cooling Sizing Factor Information, Zone THERMAL ZONE 5,   1.1500    
 Cooling Sizing Factor Information, Zone THERMAL ZONE 15,   1.1500    
 Cooling Sizing Factor Information, Zone THERMAL ZONE 9,   1.1500    
 Cooling Sizing Factor Information, Zone THERMAL ZONE 11,   1.1500    
 Cooling Sizing Factor Information, Zone THERMAL ZONE 13,   1.1500    
 Cooling Sizing Factor Information, Zone THERMAL ZONE 12,   1.1500    
 Cooling Sizing Factor Information, Zone THERMAL ZONE 8,   1.1500    
 Cooling Sizing Factor Information, Zone THERMAL ZONE 10,   1.1500    
 Cooling Sizing Factor Information, Zone THERMAL ZONE 1,   1.1500    
 Cooling Sizing Factor Information, Zone THERMAL ZONE 7,   1.1500    
 Cooling Sizing Factor Information, Zone THERMAL ZONE 6,   1.1500    
 Cooling Sizing Factor Information, Zone THERMAL ZONE 4,   1.1500    
 Cooling Sizing Factor Information, Zone THERMAL ZONE 3,   1.1500    
! <Zone Sizing Information>, Zone Name, Load Type, Calc Des Load {W}, User Des Load {W}, Calc Des Air Flow Rate {m3/s}, User Des Air Flow Rate {m3/s}, Design Day Name, Date/Time of Peak, Temperature at Peak {C}, Humidity Ratio at Peak {kgWater/kgDryAir}, Floor Area {m2}, # Occupants, Calc Outdoor Air Flow Rate {m3/s}
 Zone Sizing Information, THERMAL ZONE 14, Cooling, 13170.89553, 15146.52986, 0.76556, 0.88039, SAN FRANCISCO INTL AP ANN CLG .4% CONDNS DB=>MWB, 8/21 14:00:00, 28.30000, 7.71372E-003, 510.61524, 0.00000, 0.00000
 Zone Sizing Information, THERMAL ZONE 14, Heating, 15743.10846, 19678.88558, 0.80142, 1.00177, SAN FRANCISCO INTL AP ANN HTG 99.6% CONDNS DB, 1/21 24:00:00, 3.80000, 4.96421E-003, 510.61524, 0.00000, 0.00000
 Zone Sizing Information, THERMAL ZONE 2, Cooling, 25241.22842, 29027.41268, 1.46715, 1.68722, SAN FRANCISCO INTL AP ANN CLG .4% CONDNS DB=>MWB, 8/21 10:45:00, 26.02625, 7.71373E-003, 510.61524, 0.00000, 0.00000
 Zone Sizing Information, THERMAL ZONE 2, Heating, 14289.90633, 17862.38292, 0.72744, 0.90930, SAN FRANCISCO INTL AP ANN HTG 99.6% CONDNS DB, 1/21 24:00:00, 3.80000, 4.96421E-003, 510.61524, 0.00000, 0.00000
 Zone Sizing Information, THERMAL ZONE 5, Cooling, 773.44872, 889.46603, 4.49568E-002, 5.17003E-002, SAN FRANCISCO INTL AP ANN CLG .4% CONDNS DB=>MWB, 8/21 18:30:00, 25.62250, 7.71373E-003, 510.61524, 0.00000, 0.00000
 Zone Sizing Information, THERMAL ZONE 5, Heating, 14276.43481, 17845.54351, 0.72675, 0.90844, SAN FRANCISCO INTL AP ANN HTG 99.6% CONDNS DB, 1/21 24:00:00, 3.80000, 4.96421E-003, 510.61524, 0.00000, 0.00000
 Zone Sizing Information, THERMAL ZONE 15, Heating, 65616.17273, 82020.21591, 3.34025, 4.17531, SAN FRANCISCO INTL AP ANN HTG 99.6% CONDNS DB, 1/21 24:00:00, 3.80000, 4.96421E-003, 27957.53903, 0.00000, 0.00000
 Zone Sizing Information, THERMAL ZONE 9, Cooling, 24054.95257, 27663.19545, 1.39820, 1.60793, SAN FRANCISCO INTL AP ANN CLG .4% CONDNS DB=>MWB, 8/21 11:00:00, 26.34500, 7.71372E-003, 510.61524, 0.00000, 0.00000
 Zone Sizing Information, THERMAL ZONE 9, Heating, 12385.87285, 15482.34107, 0.63051, 0.78814, SAN FRANCISCO INTL AP ANN HTG 99.6% CONDNS DB, 1/21 24:00:00, 3.80000, 4.96421E-003, 510.61524, 0.00000, 0.00000
 Zone Sizing Information, THERMAL ZONE 11, Cooling, 23051.36318, 26509.06766, 1.33986, 1.54084, SAN FRANCISCO INTL AP ANN CLG .4% CONDNS DB=>MWB, 8/21 14:45:00, 28.30000, 7.71372E-003, 510.61524, 0.00000, 0.00000
 Zone Sizing Information, THERMAL ZONE 11, Heating, 12385.87285, 15482.34107, 0.63051, 0.78814, SAN FRANCISCO INTL AP ANN HTG 99.6% CONDNS DB, 1/21 24:00:00, 3.80000, 4.96421E-003, 510.61524, 0.00000, 0.00000
 Zone Sizing Information, THERMAL ZONE 13, Cooling, 30140.56078, 34661.64489, 1.75192, 2.01471, SAN FRANCISCO INTL AP ANN CLG .4% CONDNS DB=>MWB, 8/21 17:45:00, 26.47250, 7.71372E-003, 510.61524, 0.00000, 0.00000
 Zone Sizing Information, THERMAL ZONE 13, Heating, 12384.36574, 15480.45718, 0.63044, 0.78805, SAN FRANCISCO INTL AP ANN HTG 99.6% CONDNS DB, 1/21 24:00:00, 3.80000, 4.96421E-003, 510.61524, 0.00000, 0.00000
 Zone Sizing Information, THERMAL ZONE 12, Heating, 223666.80680, 279583.50849, 11.38595, 14.23244, SAN FRANCISCO INTL AP ANN HTG 99.6% CONDNS DB, 1/21 24:00:00, 3.80000, 4.96421E-003, 27957.53903, 0.00000, 0.00000
 Zone Sizing Information, THERMAL ZONE 8, Heating, 130624.73568, 163280.91960, 6.64956, 8.31196, SAN FRANCISCO INTL AP ANN HTG 99.6% CONDNS DB, 1/21 24:00:00, 3.80000, 4.96421E-003, 27957.53903, 0.00000, 0.00000
 Zone Sizing Information, THERMAL ZONE 10, Heating, 15761.14985, 19701.43731, 0.80233, 1.00292, SAN FRANCISCO INTL AP ANN HTG 99.6% CONDNS DB, 1/21 24:00:00, 3.80000, 4.96421E-003, 510.61524, 0.00000, 0.00000
 Zone Sizing Information, THERMAL ZONE 1, Cooling, 31897.43626, 36682.05170, 1.85404, 2.13215, SAN FRANCISCO INTL AP ANN CLG .4% CONDNS DB=>MWB, 8/21 17:45:00, 26.47250, 7.71372E-003, 510.61524, 0.00000, 0.00000
 Zone Sizing Information, THERMAL ZONE 1, Heating, 14276.43481, 17845.54351, 0.72675, 0.90844, SAN FRANCISCO INTL AP ANN HTG 99.6% CONDNS DB, 1/21 24:00:00, 3.80000, 4.96421E-003, 510.61524, 0.00000, 0.00000
 Zone Sizing Information, THERMAL ZONE 7, Heating, 12384.36574, 15480.45718, 0.63044, 0.78805, SAN FRANCISCO INTL AP ANN HTG 99.6% CONDNS DB, 1/21 24:00:00, 3.80000, 4.96421E-003, 510.61524, 0.00000, 0.00000
 Zone Sizing Information, THERMAL ZONE 6, Cooling, 21384.43216, 24592.09698, 1.24297, 1.42941, SAN FRANCISCO INTL AP ANN CLG .4% CONDNS DB=>MWB, 8/21 17:15:00, 26.89750, 7.71372E-003, 510.61524, 0.00000, 0.00000
 Zone Sizing Information, THERMAL ZONE 6, Heating, 15761.14985, 19701.43731, 0.80233, 1.00292, SAN FRANCISCO INTL AP ANN HTG 99.6% CONDNS DB, 1/21 24:00:00, 3.80000, 4.96421E-003, 510.61524, 0.00000, 0.00000
 Zone Sizing Information, THERMAL ZONE 4, Cooling, 16212.20406, 18644.03467, 0.94233, 1.08368, SAN FRANCISCO INTL AP ANN CLG .4% CONDNS DB=>MWB, 8/21 10:00:00, 25.07000, 7.71372E-003, 510.61524, 0.00000, 0.00000
 Zone Sizing Information, THERMAL ZONE 4, Heating, 15743.10846, 19678.88558, 0.80142, 1.00177, SAN FRANCISCO INTL AP ANN HTG 99.6% CONDNS DB, 1/21 24:00:00, 3.80000, 4.96421E-003, 510.61524, 0.00000, 0.00000
 Zone Sizing Information, THERMAL ZONE 3, Cooling, 24082.64213, 27695.03845, 1.39981, 1.60978, SAN FRANCISCO INTL AP ANN CLG .4% CONDNS DB=>MWB, 8/21 14:45:00, 28.30000, 7.71372E-003, 510.61524, 0.00000, 0.00000
 Zone Sizing Information, THERMAL ZONE 3, Heating, 14289.90633, 17862.38292, 0.72744, 0.90930, SAN FRANCISCO INTL AP ANN HTG 99.6% CONDNS DB, 1/21 24:00:00, 3.80000, 4.96421E-003, 510.61524, 0.00000, 0.00000
! <System Sizing Information>, System Name, Field Description, Value
 System Sizing Information, AIR LOOP HVAC 1, Calculated Cooling Design Air Flow Rate [m3/s], 14.03782
 System Sizing Information, AIR LOOP HVAC 1, User Cooling Design Air Flow Rate [m3/s], 14.03782
 System Sizing Information, AIR LOOP HVAC 1, Calculated Heating Design Air Flow Rate [m3/s], 37.51695
 System Sizing Information, AIR LOOP HVAC 1, User Heating Design Air Flow Rate [m3/s], 37.51695
! <Component Sizing Information>, Component Type, Component Name, Input Field Description, Value
 Component Sizing Information, AirTerminal:SingleDuct:VAV:Reheat, AIR TERMINAL SINGLE DUCT VAV REHEAT 9, Maximum Air Flow Rate [m3/s], 1.00177
 Component Sizing Information, AirTerminal:SingleDuct:VAV:Reheat, AIR TERMINAL SINGLE DUCT VAV REHEAT 9, Maximum Flow per Zone Floor Area during Reheat [m3/s-m2], 1.96189E-003
 Component Sizing Information, AirTerminal:SingleDuct:VAV:Reheat, AIR TERMINAL SINGLE DUCT VAV REHEAT 9, Maximum Flow Fraction during Reheat [], 1.00000
 Component Sizing Information, AirTerminal:SingleDuct:VAV:Reheat, AIR TERMINAL SINGLE DUCT VAV REHEAT 9, Maximum Reheat Water Flow Rate [m3/s], 7.39128E-004
 Component Sizing Information, AirTerminal:SingleDuct:VAV:Reheat, AIR TERMINAL SINGLE DUCT VAV REHEAT 9, Reheat Coil Sizing Air Volume Flow Rate [m3/s], 1.00177
 Component Sizing Information, Coil:Heating:Water, COIL HEATING WATER 10, Maximum Water Flow Rate [m3/s], 7.39128E-004
 Component Sizing Information, Coil:Heating:Water, COIL HEATING WATER 10, Design Coil Load [W], 34022.26726
 Component Sizing Information, Coil:Heating:Water, COIL HEATING WATER 10, U-Factor Times Area Value [W/K], 712.54465
! <Water Heating Coil Capacity Information>,Component Type,Name,Nominal Total Capacity {W}
Water Heating Coil Capacity Information,Coil:Heating:Water,COIL HEATING WATER 10,32228.21
 Component Sizing Information, AirTerminal:SingleDuct:VAV:Reheat, AIR TERMINAL SINGLE DUCT VAV REHEAT 15, Maximum Air Flow Rate [m3/s], 1.68722
 Component Sizing Information, AirTerminal:SingleDuct:VAV:Reheat, AIR TERMINAL SINGLE DUCT VAV REHEAT 15, Maximum Flow per Zone Floor Area during Reheat [m3/s-m2], 2.03200E-003
 Component Sizing Information, AirTerminal:SingleDuct:VAV:Reheat, AIR TERMINAL SINGLE DUCT VAV REHEAT 15, Maximum Flow Fraction during Reheat [], 0.61496
 Component Sizing Information, AirTerminal:SingleDuct:VAV:Reheat, AIR TERMINAL SINGLE DUCT VAV REHEAT 15, Maximum Reheat Water Flow Rate [m3/s], 6.70901E-004
 Component Sizing Information, AirTerminal:SingleDuct:VAV:Reheat, AIR TERMINAL SINGLE DUCT VAV REHEAT 15, Reheat Coil Sizing Air Volume Flow Rate [m3/s], 0.90930
 Component Sizing Information, Coil:Heating:Water, COIL HEATING WATER 16, Maximum Water Flow Rate [m3/s], 6.70901E-004
 Component Sizing Information, Coil:Heating:Water, COIL HEATING WATER 16, Design Coil Load [W], 30881.76731
 Component Sizing Information, Coil:Heating:Water, COIL HEATING WATER 16, U-Factor Times Area Value [W/K], 1200.09652
Water Heating Coil Capacity Information,Coil:Heating:Water,COIL HEATING WATER 16,42743.81
 Component Sizing Information, AirTerminal:SingleDuct:VAV:Reheat, AIR TERMINAL SINGLE DUCT VAV REHEAT 13, Maximum Air Flow Rate [m3/s], 0.90844
 Component Sizing Information, AirTerminal:SingleDuct:VAV:Reheat, AIR TERMINAL SINGLE DUCT VAV REHEAT 13, Maximum Flow per Zone Floor Area during Reheat [m3/s-m2], 1.77911E-003
 Component Sizing Information, AirTerminal:SingleDuct:VAV:Reheat, AIR TERMINAL SINGLE DUCT VAV REHEAT 13, Maximum Flow Fraction during Reheat [], 1.00000
 Component Sizing Information, AirTerminal:SingleDuct:VAV:Reheat, AIR TERMINAL SINGLE DUCT VAV REHEAT 13, Maximum Reheat Water Flow Rate [m3/s], 6.70268E-004
 Component Sizing Information, AirTerminal:SingleDuct:VAV:Reheat, AIR TERMINAL SINGLE DUCT VAV REHEAT 13, Reheat Coil Sizing Air Volume Flow Rate [m3/s], 0.90844
 Component Sizing Information, Coil:Heating:Water, COIL HEATING WATER 14, Maximum Water Flow Rate [m3/s], 6.70268E-004
 Component Sizing Information, Coil:Heating:Water, COIL HEATING WATER 14, Design Coil Load [W], 30852.65413
 Component Sizing Information, Coil:Heating:Water, COIL HEATING WATER 14, U-Factor Times Area Value [W/K], 646.16193
Water Heating Coil Capacity Information,Coil:Heating:Water,COIL HEATING WATER 14,29225.73
 Component Sizing Information, AirTerminal:SingleDuct:VAV:Reheat, AIR TERMINAL SINGLE DUCT VAV REHEAT 16, Maximum Air Flow Rate [m3/s], 4.17531
 Component Sizing Information, AirTerminal:SingleDuct:VAV:Reheat, AIR TERMINAL SINGLE DUCT VAV REHEAT 16, Maximum Flow per Zone Floor Area during Reheat [m3/s-m2], 1.49345E-004
 Component Sizing Information, AirTerminal:SingleDuct:VAV:Reheat, AIR TERMINAL SINGLE DUCT VAV REHEAT 16, Maximum Flow Fraction during Reheat [], 1.00000
 Component Sizing Information, AirTerminal:SingleDuct:VAV:Reheat, AIR TERMINAL SINGLE DUCT VAV REHEAT 16, Maximum Reheat Water Flow Rate [m3/s], 3.08063E-003
 Component Sizing Information, AirTerminal:SingleDuct:VAV:Reheat, AIR TERMINAL SINGLE DUCT VAV REHEAT 16, Reheat Coil Sizing Air Volume Flow Rate [m3/s], 4.17531
 Component Sizing Information, Coil:Heating:Water, COIL HEATING WATER 17, Maximum Water Flow Rate [m3/s], 3.08063E-003
 Component Sizing Information, Coil:Heating:Water, COIL HEATING WATER 17, Design Coil Load [W], 141802.42549
 Component Sizing Information, Coil:Heating:Water, COIL HEATING WATER 17, U-Factor Times Area Value [W/K], 2969.83618
Water Heating Coil Capacity Information,Coil:Heating:Water,COIL HEATING WATER 17,134324.90
 Component Sizing Information, AirTerminal:SingleDuct:VAV:Reheat, AIR TERMINAL SINGLE DUCT VAV REHEAT 10, Maximum Air Flow Rate [m3/s], 1.60793
 Component Sizing Information, AirTerminal:SingleDuct:VAV:Reheat, AIR TERMINAL SINGLE DUCT VAV REHEAT 10, Maximum Flow per Zone Floor Area during Reheat [m3/s-m2], 2.03200E-003
 Component Sizing Information, AirTerminal:SingleDuct:VAV:Reheat, AIR TERMINAL SINGLE DUCT VAV REHEAT 10, Maximum Flow Fraction during Reheat [], 0.64528
 Component Sizing Information, AirTerminal:SingleDuct:VAV:Reheat, AIR TERMINAL SINGLE DUCT VAV REHEAT 10, Maximum Reheat Water Flow Rate [m3/s], 5.81508E-004
 Component Sizing Information, AirTerminal:SingleDuct:VAV:Reheat, AIR TERMINAL SINGLE DUCT VAV REHEAT 10, Reheat Coil Sizing Air Volume Flow Rate [m3/s], 0.78814
 Component Sizing Information, Coil:Heating:Water, COIL HEATING WATER 11, Maximum Water Flow Rate [m3/s], 5.81508E-004
 Component Sizing Information, Coil:Heating:Water, COIL HEATING WATER 11, Design Coil Load [W], 26766.98045
 Component Sizing Information, Coil:Heating:Water, COIL HEATING WATER 11, U-Factor Times Area Value [W/K], 1143.69493
Water Heating Coil Capacity Information,Coil:Heating:Water,COIL HEATING WATER 11,38900.90
 Component Sizing Information, AirTerminal:SingleDuct:VAV:Reheat, AIR TERMINAL SINGLE DUCT VAV REHEAT 3, Maximum Air Flow Rate [m3/s], 1.54084
 Component Sizing Information, AirTerminal:SingleDuct:VAV:Reheat, AIR TERMINAL SINGLE DUCT VAV REHEAT 3, Maximum Flow per Zone Floor Area during Reheat [m3/s-m2], 2.03200E-003
 Component Sizing Information, AirTerminal:SingleDuct:VAV:Reheat, AIR TERMINAL SINGLE DUCT VAV REHEAT 3, Maximum Flow Fraction during Reheat [], 0.67338
 Component Sizing Information, AirTerminal:SingleDuct:VAV:Reheat, AIR TERMINAL SINGLE DUCT VAV REHEAT 3, Maximum Reheat Water Flow Rate [m3/s], 5.81508E-004
 Component Sizing Information, AirTerminal:SingleDuct:VAV:Reheat, AIR TERMINAL SINGLE DUCT VAV REHEAT 3, Reheat Coil Sizing Air Volume Flow Rate [m3/s], 0.78814
 Component Sizing Information, Coil:Heating:Water, COIL HEATING WATER 4, Maximum Water Flow Rate [m3/s], 5.81508E-004
 Component Sizing Information, Coil:Heating:Water, COIL HEATING WATER 4, Design Coil Load [W], 26766.98045
 Component Sizing Information, Coil:Heating:Water, COIL HEATING WATER 4, U-Factor Times Area Value [W/K], 1095.97918
Water Heating Coil Capacity Information,Coil:Heating:Water,COIL HEATING WATER 4,38070.14
 Component Sizing Information, AirTerminal:SingleDuct:VAV:Reheat, AIR TERMINAL SINGLE DUCT VAV REHEAT 12, Maximum Air Flow Rate [m3/s], 2.01471
 Component Sizing Information, AirTerminal:SingleDuct:VAV:Reheat, AIR TERMINAL SINGLE DUCT VAV REHEAT 12, Maximum Flow per Zone Floor Area during Reheat [m3/s-m2], 2.03200E-003
 Component Sizing Information, AirTerminal:SingleDuct:VAV:Reheat, AIR TERMINAL SINGLE DUCT VAV REHEAT 12, Maximum Flow Fraction during Reheat [], 0.51500
 Component Sizing Information, AirTerminal:SingleDuct:VAV:Reheat, AIR TERMINAL SINGLE DUCT VAV REHEAT 12, Maximum Reheat Water Flow Rate [m3/s], 5.81437E-004
 Component Sizing Information, AirTerminal:SingleDuct:VAV:Reheat, AIR TERMINAL SINGLE DUCT VAV REHEAT 12, Reheat Coil Sizing Air Volume Flow Rate [m3/s], 0.78805
 Component Sizing Information, Coil:Heating:Water, COIL HEATING WATER 13, Maximum Water Flow Rate [m3/s], 5.81437E-004
 Component Sizing Information, Coil:Heating:Water, COIL HEATING WATER 13, Design Coil Load [W], 26763.72345
 Component Sizing Information, Coil:Heating:Water, COIL HEATING WATER 13, U-Factor Times Area Value [W/K], 1433.03573
Water Heating Coil Capacity Information,Coil:Heating:Water,COIL HEATING WATER 13,43206.76
 Component Sizing Information, AirTerminal:SingleDuct:VAV:Reheat, AIR TERMINAL SINGLE DUCT VAV REHEAT 2, Maximum Air Flow Rate [m3/s], 14.23244
 Component Sizing Information, AirTerminal:SingleDuct:VAV:Reheat, AIR TERMINAL SINGLE DUCT VAV REHEAT 2, Maximum Flow per Zone Floor Area during Reheat [m3/s-m2], 5.09073E-004
 Component Sizing Information, AirTerminal:SingleDuct:VAV:Reheat, AIR TERMINAL SINGLE DUCT VAV REHEAT 2, Maximum Flow Fraction during Reheat [], 1.00000
 Component Sizing Information, AirTerminal:SingleDuct:VAV:Reheat, AIR TERMINAL SINGLE DUCT VAV REHEAT 2, Maximum Reheat Water Flow Rate [m3/s], 1.05010E-002
 Component Sizing Information, AirTerminal:SingleDuct:VAV:Reheat, AIR TERMINAL SINGLE DUCT VAV REHEAT 2, Reheat Coil Sizing Air Volume Flow Rate [m3/s], 14.23244
 Component Sizing Information, Coil:Heating:Water, COIL HEATING WATER 3, Maximum Water Flow Rate [m3/s], 1.05010E-002
 Component Sizing Information, Coil:Heating:Water, COIL HEATING WATER 3, Design Coil Load [W], 483363.99986
 Component Sizing Information, Coil:Heating:Water, COIL HEATING WATER 3, U-Factor Times Area Value [W/K], 10123.32398
Water Heating Coil Capacity Information,Coil:Heating:Water,COIL HEATING WATER 3,457875.25
 Component Sizing Information, AirTerminal:SingleDuct:VAV:Reheat, AIR TERMINAL SINGLE DUCT VAV REHEAT 11, Maximum Air Flow Rate [m3/s], 8.31196
 Component Sizing Information, AirTerminal:SingleDuct:VAV:Reheat, AIR TERMINAL SINGLE DUCT VAV REHEAT 11, Maximum Flow per Zone Floor Area during Reheat [m3/s-m2], 2.97306E-004
 Component Sizing Information, AirTerminal:SingleDuct:VAV:Reheat, AIR TERMINAL SINGLE DUCT VAV REHEAT 11, Maximum Flow Fraction during Reheat [], 1.00000
 Component Sizing Information, AirTerminal:SingleDuct:VAV:Reheat, AIR TERMINAL SINGLE DUCT VAV REHEAT 11, Maximum Reheat Water Flow Rate [m3/s], 6.13274E-003
 Component Sizing Information, AirTerminal:SingleDuct:VAV:Reheat, AIR TERMINAL SINGLE DUCT VAV REHEAT 11, Reheat Coil Sizing Air Volume Flow Rate [m3/s], 8.31196
 Component Sizing Information, Coil:Heating:Water, COIL HEATING WATER 12, Maximum Water Flow Rate [m3/s], 6.13274E-003
 Component Sizing Information, Coil:Heating:Water, COIL HEATING WATER 12, Design Coil Load [W], 282291.75184
 Component Sizing Information, Coil:Heating:Water, COIL HEATING WATER 12, U-Factor Times Area Value [W/K], 5912.17149
Water Heating Coil Capacity Information,Coil:Heating:Water,COIL HEATING WATER 12,267405.94
 Component Sizing Information, AirTerminal:SingleDuct:VAV:Reheat, AIR TERMINAL SINGLE DUCT VAV REHEAT 7, Maximum Air Flow Rate [m3/s], 1.00292
 Component Sizing Information, AirTerminal:SingleDuct:VAV:Reheat, AIR TERMINAL SINGLE DUCT VAV REHEAT 7, Maximum Flow per Zone Floor Area during Reheat [m3/s-m2], 1.96414E-003
 Component Sizing Information, AirTerminal:SingleDuct:VAV:Reheat, AIR TERMINAL SINGLE DUCT VAV REHEAT 7, Maximum Flow Fraction during Reheat [], 1.00000
 Component Sizing Information, AirTerminal:SingleDuct:VAV:Reheat, AIR TERMINAL SINGLE DUCT VAV REHEAT 7, Maximum Reheat Water Flow Rate [m3/s], 7.39975E-004
 Component Sizing Information, AirTerminal:SingleDuct:VAV:Reheat, AIR TERMINAL SINGLE DUCT VAV REHEAT 7, Reheat Coil Sizing Air Volume Flow Rate [m3/s], 1.00292
 Component Sizing Information, Coil:Heating:Water, COIL HEATING WATER 8, Maximum Water Flow Rate [m3/s], 7.39975E-004
 Component Sizing Information, Coil:Heating:Water, COIL HEATING WATER 8, Design Coil Load [W], 34061.25630
 Component Sizing Information, Coil:Heating:Water, COIL HEATING WATER 8, U-Factor Times Area Value [W/K], 713.36122
Water Heating Coil Capacity Information,Coil:Heating:Water,COIL HEATING WATER 8,32265.14
 Component Sizing Information, AirTerminal:SingleDuct:VAV:Reheat, AIR TERMINAL SINGLE DUCT VAV REHEAT 5, Maximum Air Flow Rate [m3/s], 2.13215
 Component Sizing Information, AirTerminal:SingleDuct:VAV:Reheat, AIR TERMINAL SINGLE DUCT VAV REHEAT 5, Maximum Flow per Zone Floor Area during Reheat [m3/s-m2], 2.03200E-003
 Component Sizing Information, AirTerminal:SingleDuct:VAV:Reheat, AIR TERMINAL SINGLE DUCT VAV REHEAT 5, Maximum Flow Fraction during Reheat [], 0.48663
 Component Sizing Information, AirTerminal:SingleDuct:VAV:Reheat, AIR TERMINAL SINGLE DUCT VAV REHEAT 5, Maximum Reheat Water Flow Rate [m3/s], 6.70268E-004
 Component Sizing Information, AirTerminal:SingleDuct:VAV:Reheat, AIR TERMINAL SINGLE DUCT VAV REHEAT 5, Reheat Coil Sizing Air Volume Flow Rate [m3/s], 0.90844
 Component Sizing Information, Coil:Heating:Water, COIL HEATING WATER 6, Maximum Water Flow Rate [m3/s], 6.70268E-004
 Component Sizing Information, Coil:Heating:Water, COIL HEATING WATER 6, Design Coil Load [W], 30852.65413
 Component Sizing Information, Coil:Heating:Water, COIL HEATING WATER 6, U-Factor Times Area Value [W/K], 1516.56653
Water Heating Coil Capacity Information,Coil:Heating:Water,COIL HEATING WATER 6,47950.92
 Component Sizing Information, AirTerminal:SingleDuct:VAV:Reheat, AIR TERMINAL SINGLE DUCT VAV REHEAT 14, Maximum Air Flow Rate [m3/s], 0.78805
 Component Sizing Information, AirTerminal:SingleDuct:VAV:Reheat, AIR TERMINAL SINGLE DUCT VAV REHEAT 14, Maximum Flow per Zone Floor Area during Reheat [m3/s-m2], 1.54333E-003
 Component Sizing Information, AirTerminal:SingleDuct:VAV:Reheat, AIR TERMINAL SINGLE DUCT VAV REHEAT 14, Maximum Flow Fraction during Reheat [], 1.00000
 Component Sizing Information, AirTerminal:SingleDuct:VAV:Reheat, AIR TERMINAL SINGLE DUCT VAV REHEAT 14, Maximum Reheat Water Flow Rate [m3/s], 5.81437E-004
 Component Sizing Information, AirTerminal:SingleDuct:VAV:Reheat, AIR TERMINAL SINGLE DUCT VAV REHEAT 14, Reheat Coil Sizing Air Volume Flow Rate [m3/s], 0.78805
 Component Sizing Information, Coil:Heating:Water, COIL HEATING WATER 15, Maximum Water Flow Rate [m3/s], 5.81437E-004
 Component Sizing Information, Coil:Heating:Water, COIL HEATING WATER 15, Design Coil Load [W], 26763.72345
 Component Sizing Information, Coil:Heating:Water, COIL HEATING WATER 15, U-Factor Times Area Value [W/K], 560.52549
Water Heating Coil Capacity Information,Coil:Heating:Water,COIL HEATING WATER 15,25352.42
 Component Sizing Information, AirTerminal:SingleDuct:VAV:Reheat, AIR TERMINAL SINGLE DUCT VAV REHEAT 4, Maximum Air Flow Rate [m3/s], 1.42941
 Component Sizing Information, AirTerminal:SingleDuct:VAV:Reheat, AIR TERMINAL SINGLE DUCT VAV REHEAT 4, Maximum Flow per Zone Floor Area during Reheat [m3/s-m2], 2.03200E-003
 Component Sizing Information, AirTerminal:SingleDuct:VAV:Reheat, AIR TERMINAL SINGLE DUCT VAV REHEAT 4, Maximum Flow Fraction during Reheat [], 0.72587
 Component Sizing Information, AirTerminal:SingleDuct:VAV:Reheat, AIR TERMINAL SINGLE DUCT VAV REHEAT 4, Maximum Reheat Water Flow Rate [m3/s], 7.39975E-004
 Component Sizing Information, AirTerminal:SingleDuct:VAV:Reheat, AIR TERMINAL SINGLE DUCT VAV REHEAT 4, Reheat Coil Sizing Air Volume Flow Rate [m3/s], 1.00292
 Component Sizing Information, Coil:Heating:Water, COIL HEATING WATER 5, Maximum Water Flow Rate [m3/s], 7.39975E-004
 Component Sizing Information, Coil:Heating:Water, COIL HEATING WATER 5, Design Coil Load [W], 34061.25630
 Component Sizing Information, Coil:Heating:Water, COIL HEATING WATER 5, U-Factor Times Area Value [W/K], 1016.72030
Water Heating Coil Capacity Information,Coil:Heating:Water,COIL HEATING WATER 5,40602.18
 Component Sizing Information, AirTerminal:SingleDuct:VAV:Reheat, AIR TERMINAL SINGLE DUCT VAV REHEAT 6, Maximum Air Flow Rate [m3/s], 1.08368
 Component Sizing Information, AirTerminal:SingleDuct:VAV:Reheat, AIR TERMINAL SINGLE DUCT VAV REHEAT 6, Maximum Flow per Zone Floor Area during Reheat [m3/s-m2], 2.03200E-003
 Component Sizing Information, AirTerminal:SingleDuct:VAV:Reheat, AIR TERMINAL SINGLE DUCT VAV REHEAT 6, Maximum Flow Fraction during Reheat [], 0.95745
 Component Sizing Information, AirTerminal:SingleDuct:VAV:Reheat, AIR TERMINAL SINGLE DUCT VAV REHEAT 6, Maximum Reheat Water Flow Rate [m3/s], 7.39128E-004
 Component Sizing Information, AirTerminal:SingleDuct:VAV:Reheat, AIR TERMINAL SINGLE DUCT VAV REHEAT 6, Reheat Coil Sizing Air Volume Flow Rate [m3/s], 1.00177
 Component Sizing Information, Coil:Heating:Water, COIL HEATING WATER 7, Maximum Water Flow Rate [m3/s], 7.39128E-004
 Component Sizing Information, Coil:Heating:Water, COIL HEATING WATER 7, Design Coil Load [W], 34022.26726
 Component Sizing Information, Coil:Heating:Water, COIL HEATING WATER 7, U-Factor Times Area Value [W/K], 770.80374
Water Heating Coil Capacity Information,Coil:Heating:Water,COIL HEATING WATER 7,34004.23
 Component Sizing Information, AirTerminal:SingleDuct:VAV:Reheat, AIR TERMINAL SINGLE DUCT VAV REHEAT 8, Maximum Air Flow Rate [m3/s], 1.60978
 Component Sizing Information, AirTerminal:SingleDuct:VAV:Reheat, AIR TERMINAL SINGLE DUCT VAV REHEAT 8, Maximum Flow per Zone Floor Area during Reheat [m3/s-m2], 2.03200E-003
 Component Sizing Information, AirTerminal:SingleDuct:VAV:Reheat, AIR TERMINAL SINGLE DUCT VAV REHEAT 8, Maximum Flow Fraction during Reheat [], 0.64454
 Component Sizing Information, AirTerminal:SingleDuct:VAV:Reheat, AIR TERMINAL SINGLE DUCT VAV REHEAT 8, Maximum Reheat Water Flow Rate [m3/s], 6.70901E-004
 Component Sizing Information, AirTerminal:SingleDuct:VAV:Reheat, AIR TERMINAL SINGLE DUCT VAV REHEAT 8, Reheat Coil Sizing Air Volume Flow Rate [m3/s], 0.90930
 Component Sizing Information, Coil:Heating:Water, COIL HEATING WATER 9, Maximum Water Flow Rate [m3/s], 6.70901E-004
 Component Sizing Information, Coil:Heating:Water, COIL HEATING WATER 9, Design Coil Load [W], 30881.76731
 Component Sizing Information, Coil:Heating:Water, COIL HEATING WATER 9, U-Factor Times Area Value [W/K], 1145.01143
Water Heating Coil Capacity Information,Coil:Heating:Water,COIL HEATING WATER 9,41682.09
 Component Sizing Information, Branch, BRANCH {9E16B8A7-F8E0-48AA-A1BD-F5EE78FC0249}, Maximum Flow Rate [m3/s], 37.51695
 Component Sizing Information, AirLoopHVAC, AIR LOOP HVAC 1, Design Supply Air Flow Rate [m3/s], 37.51695
 Component Sizing Information, Controller:OutdoorAir, CONTROLLER OUTDOOR AIR 1, Maximum Outdoor Air Flow Rate [m3/s], 37.51695
 Component Sizing Information, Controller:OutdoorAir, CONTROLLER OUTDOOR AIR 1, Minimum Outdoor Air Flow Rate [m3/s], 0.00000
 Component Sizing Information, Coil:Cooling:DX:TwoSpeed, COIL COOLING DX TWO SPEED 1, Rated High Speed Air Flow Rate [m3/s], 37.51695
 Component Sizing Information, Coil:Cooling:DX:TwoSpeed, COIL COOLING DX TWO SPEED 1, Rated High Speed Total Cooling Capacity (gross) [W], 621038.67089
 Component Sizing Information, Coil:Cooling:DX:TwoSpeed, COIL COOLING DX TWO SPEED 1, Rated High Speed Sensible Heat Ratio, 0.79866
 Component Sizing Information, Coil:Cooling:DX:TwoSpeed, COIL COOLING DX TWO SPEED 1, Rated Low Speed Air Flow Rate [m3/s], 12.50440
 Component Sizing Information, Coil:Cooling:DX:TwoSpeed, COIL COOLING DX TWO SPEED 1, Rated Low Speed Total Cooling Capacity (gross) [W], 206992.18901
! <VAV DX Cooling Coil Standard Rating Information>, DX Coil Type, DX Coil Name, Fan Type, Fan Name, Standard Net Cooling Capacity {W}, Standard Net Cooling Capacity {Btu/h}, IEER {Btu/W-h}, COP 100% Capacity {W/W}, COP 75% Capacity {W/W}, COP 50% Capacity {W/W}, COP 25% Capacity {W/W}, EER 100% Capacity {Btu/W-h}, EER 75% Capacity {Btu/W-h}, EER 50% Capacity {Btu/W-h}, EER 25% Capacity {Btu/W-h}, Supply Air Flow 100% {kg/s}, Supply Air Flow 75% {kg/s},Supply Air Flow 50% {kg/s},Supply Air Flow 25% {kg/s}
 VAV DX Cooling Coil Standard Rating Information, Coil:Cooling:DX:TwoSpeed,COIL COOLING DX TWO SPEED 1,N/A,N/A,593078.54,2023667.97,22.01,4.21,5.41,7.46,10.04,14.35,18.45,25.46,34.24,43.3829,33.3359,22.1357,11.8174,
 Component Sizing Information, Coil:Heating:Water, COIL HEATING WATER 1, Maximum Water Flow Rate [m3/s], 2.66249E-003
 Component Sizing Information, Coil:Heating:Water, COIL HEATING WATER 1, Design Coil Load [W], 122555.00286
 Component Sizing Information, Coil:Heating:Water, COIL HEATING WATER 1, U-Factor Times Area Value [W/K], 1864.09969
Water Heating Coil Capacity Information,Coil:Heating:Water,COIL HEATING WATER 1,109573.38
 Component Sizing Information, Fan:VariableVolume, FAN VARIABLE VOLUME 1, Maximum Flow Rate [m3/s], 37.51695
 Component Sizing Information, Controller:WaterCoil, CONTROLLER WATER COIL 1, Maximum Actuated Flow [m3/s], 2.66249E-003
 Component Sizing Information, Controller:WaterCoil, CONTROLLER WATER COIL 1, Controller Convergence Tolerance, 1.78852E-004
 Component Sizing Information, Boiler:HotWater, BOILER HOT WATER 1, Nominal Capacity [W], 1402117.09905
 Component Sizing Information, Boiler:HotWater, BOILER HOT WATER 1, Design Water Flow Rate [m3/s], 3.03433E-002
 Component Sizing Information, PlantLoop, PLANT LOOP 1, Maximum Loop Flow Rate [m3/s], 3.03433E-002
 Component Sizing Information, PlantLoop, PLANT LOOP 1, Plant Loop Volume [m3], 34.13619
 Component Sizing Information, Pump:VariableSpeed, PUMP VARIABLE SPEED 1, Rated Flow Rate [m3/s], 3.03433E-002
 Component Sizing Information, Pump:VariableSpeed, PUMP VARIABLE SPEED 1, Rated Power Consumption [W], 7752.31937
! <Environment>,Environment Name,Environment Type, Start Date, End Date, Start DayOfWeek, Duration {#days}, Source:Start DayOfWeek,  Use Daylight Saving, Use Holidays, Apply Weekend Holiday Rule,  Use Rain Values, Use Snow Values
! <Environment:Special Days>, Special Day Name, Special Day Type, Source, Start Date, Duration {#days}
! <Environment:Daylight Saving>, Daylight Saving Indicator, Source, Start Date, End Date
! <Environment:WarmupDays>, NumberofWarmupDays
Environment,SAN FRANCISCO INTL AP ANN HTG WIND 99% CONDNS WS=>MCDB,SizingPeriod:DesignDay,01/21,01/21,WinterDesignDay,1,N/A,N/A,N/A,N/A,N/A,N/A
Environment:Daylight Saving,No,SizingPeriod:DesignDay
! <Environment:Design Day Data>, Max Dry-Bulb Temp {C}, Temp Range {dC}, Temp Range Ind Type, Hum Ind Value at Max Temp, Hum Ind Type,Pressure {Pa}, Wind Direction {deg CW from N}, Wind Speed {m/s}, Clearness, Rain, Snow
! <Environment:Design_Day_Misc>,DayOfYear,ASHRAE A Coeff,ASHRAE B Coeff,ASHRAE C Coeff,Solar Constant-Annual Variation,Eq of Time {minutes}, Solar Declination Angle {deg}, Solar Model
Environment:Design Day Data,12.20,0.00,DefaultMultipliers,101301,150,11.6,0.00,No ,No 
Environment:Design_Day_Misc, 21,1229.0,0.1415,5.7310E-002,1.0,-11.15,-20.1,ASHRAEClearSky
Environment:WarmupDays,  6
! <Warmup Convergence Information>,Zone Name,Environment Type/Name,Average Warmup Temperature Difference {deltaC},Std Dev Warmup Temperature Difference {deltaC},Max Temperature Pass/Fail Convergence,Min Temperature Pass/Fail Convergence,Average Warmup Load Difference {W},Std Dev Warmup Load Difference {W},Heating Load Pass/Fail Convergence,Cooling Load Pass/Fail Convergence
 Warmup Convergence Information,THERMAL ZONE 14,SizingPeriod: SAN FRANCISCO INTL AP ANN HTG WIND 99% CONDNS WS=>MCDB,4.3303499943E-006,3.1709127322E-006,Pass,Pass,5.7361747177E-006,3.6530765411E-006,Pass,Pass
 Warmup Convergence Information,THERMAL ZONE 2,SizingPeriod: SAN FRANCISCO INTL AP ANN HTG WIND 99% CONDNS WS=>MCDB,2.5650624966E-003,1.6644209607E-003,Pass,Pass,3.8092793739E-003,2.6868457396E-003,Pass,Pass
 Warmup Convergence Information,THERMAL ZONE 5,SizingPeriod: SAN FRANCISCO INTL AP ANN HTG WIND 99% CONDNS WS=>MCDB,3.1862219447E-006,2.2933920768E-006,Pass,Pass,5.6549065187E-006,3.5828065737E-006,Pass,Pass
 Warmup Convergence Information,THERMAL ZONE 15,SizingPeriod: SAN FRANCISCO INTL AP ANN HTG WIND 99% CONDNS WS=>MCDB,2.3909339184E-006,9.8124243765E-007,Pass,Pass,6.2312139465E-006,3.8491482480E-006,Pass,Pass
 Warmup Convergence Information,THERMAL ZONE 9,SizingPeriod: SAN FRANCISCO INTL AP ANN HTG WIND 99% CONDNS WS=>MCDB,2.3594818337E-003,3.3382084685E-006,Pass,Pass,6.1219297820E-003,1.9336723258E-005,Pass,Pass
 Warmup Convergence Information,THERMAL ZONE 11,SizingPeriod: SAN FRANCISCO INTL AP ANN HTG WIND 99% CONDNS WS=>MCDB,5.3127325745E-004,1.2807205713E-003,Pass,Pass,5.4045917186E-004,1.6606290116E-003,Pass,Pass
 Warmup Convergence Information,THERMAL ZONE 13,SizingPeriod: SAN FRANCISCO INTL AP ANN HTG WIND 99% CONDNS WS=>MCDB,2.8916094946E-006,2.0371005706E-006,Pass,Pass,5.2189199206E-006,3.2398735112E-006,Pass,Pass
 Warmup Convergence Information,THERMAL ZONE 12,SizingPeriod: SAN FRANCISCO INTL AP ANN HTG WIND 99% CONDNS WS=>MCDB,1.5967006201E-006,1.1925634016E-006,Pass,Pass,5.9105745339E-006,3.6585151743E-006,Pass,Pass
 Warmup Convergence Information,THERMAL ZONE 8,SizingPeriod: SAN FRANCISCO INTL AP ANN HTG WIND 99% CONDNS WS=>MCDB,1.2547965938E-006,7.8684839704E-007,Pass,Pass,6.1191923962E-006,3.9074390245E-006,Pass,Pass
 Warmup Convergence Information,THERMAL ZONE 10,SizingPeriod: SAN FRANCISCO INTL AP ANN HTG WIND 99% CONDNS WS=>MCDB,4.3213024237E-006,3.1294957700E-006,Pass,Pass,5.7254539356E-006,3.6445922247E-006,Pass,Pass
 Warmup Convergence Information,THERMAL ZONE 1,SizingPeriod: SAN FRANCISCO INTL AP ANN HTG WIND 99% CONDNS WS=>MCDB,2.6352162084E-003,1.6567645011E-003,Pass,Pass,5.2164833021E-003,3.4132014832E-003,Pass,Pass
 Warmup Convergence Information,THERMAL ZONE 7,SizingPeriod: SAN FRANCISCO INTL AP ANN HTG WIND 99% CONDNS WS=>MCDB,2.5843135844E-003,9.4589616767E-004,Pass,Pass,4.4372675297E-003,2.3145235630E-003,Pass,Pass
 Warmup Convergence Information,THERMAL ZONE 6,SizingPeriod: SAN FRANCISCO INTL AP ANN HTG WIND 99% CONDNS WS=>MCDB,3.8830223652E-006,2.7425562861E-006,Pass,Pass,4.9899748004E-006,3.0946315361E-006,Pass,Pass
 Warmup Convergence Information,THERMAL ZONE 4,SizingPeriod: SAN FRANCISCO INTL AP ANN HTG WIND 99% CONDNS WS=>MCDB,4.1719214747E-006,2.9891833984E-006,Pass,Pass,5.4639969197E-006,3.4643244210E-006,Pass,Pass
 Warmup Convergence Information,THERMAL ZONE 3,SizingPeriod: SAN FRANCISCO INTL AP ANN HTG WIND 99% CONDNS WS=>MCDB,9.9812183329E-004,9.5210806465E-004,Pass,Pass,1.2252838843E-003,1.4267251859E-003,Pass,Pass
Environment,SAN FRANCISCO INTL AP ANN CLG .4% CONDNS DP=>MDB,SizingPeriod:DesignDay,08/21,08/21,SummerDesignDay,1,N/A,N/A,N/A,N/A,N/A,N/A
Environment:Daylight Saving,No,SizingPeriod:DesignDay
Environment:Design Day Data,19.90,8.50,DefaultMultipliers,101301,310,5.9,0.00,No ,No 
Environment:Design_Day_Misc,233,1106.3,0.2000,0.1216,1.0,-3.33,12.4,ASHRAETau
Environment:WarmupDays,  6
 Warmup Convergence Information,THERMAL ZONE 14,SizingPeriod: SAN FRANCISCO INTL AP ANN CLG .4% CONDNS DP=>MDB,8.4218462152E-002,0.1529078897,Pass,Pass,0.2421299242,1.0762862553,Pass,Pass
 Warmup Convergence Information,THERMAL ZONE 2,SizingPeriod: SAN FRANCISCO INTL AP ANN CLG .4% CONDNS DP=>MDB,8.3804531309E-002,0.1290087789,Pass,Pass,0.2044660216,0.6221180817,Pass,Pass
 Warmup Convergence Information,THERMAL ZONE 5,SizingPeriod: SAN FRANCISCO INTL AP ANN CLG .4% CONDNS DP=>MDB,5.6085161057E-004,7.1056380985E-004,Pass,Pass,0.4640269555,2.4517914631,Pass,Pass
 Warmup Convergence Information,THERMAL ZONE 15,SizingPeriod: SAN FRANCISCO INTL AP ANN CLG .4% CONDNS DP=>MDB,1.7621975812E-004,1.6177687799E-004,Pass,Pass,5.9069364234E-003,4.2693896910E-003,Pass,Pass
 Warmup Convergence Information,THERMAL ZONE 9,SizingPeriod: SAN FRANCISCO INTL AP ANN CLG .4% CONDNS DP=>MDB,8.3804134585E-002,0.1342168104,Pass,Pass,1.1654435698,9.7157256785,Pass,Pass
 Warmup Convergence Information,THERMAL ZONE 11,SizingPeriod: SAN FRANCISCO INTL AP ANN CLG .4% CONDNS DP=>MDB,8.3780571693E-002,0.1219071933,Pass,Pass,0.2501581706,0.9447725361,Pass,Pass
 Warmup Convergence Information,THERMAL ZONE 13,SizingPeriod: SAN FRANCISCO INTL AP ANN CLG .4% CONDNS DP=>MDB,8.3857303584E-002,0.1435988122,Pass,Pass,0.2557505828,0.6937536215,Pass,Pass
 Warmup Convergence Information,THERMAL ZONE 12,SizingPeriod: SAN FRANCISCO INTL AP ANN CLG .4% CONDNS DP=>MDB,3.4184646549E-003,2.4148669284E-003,Pass,Pass,4.3492489715E-004,5.6895391454E-004,Pass,Pass
 Warmup Convergence Information,THERMAL ZONE 8,SizingPeriod: SAN FRANCISCO INTL AP ANN CLG .4% CONDNS DP=>MDB,1.0882242382E-004,9.0047642130E-005,Pass,Pass,5.7054918569E-002,4.7503780473E-002,Pass,Pass
 Warmup Convergence Information,THERMAL ZONE 10,SizingPeriod: SAN FRANCISCO INTL AP ANN CLG .4% CONDNS DP=>MDB,1.1547623053E-003,1.2348339456E-003,Pass,Pass,4.3726439261E-002,4.1614793276E-002,Pass,Pass
 Warmup Convergence Information,THERMAL ZONE 1,SizingPeriod: SAN FRANCISCO INTL AP ANN CLG .4% CONDNS DP=>MDB,8.3828349539E-002,0.1457291225,Pass,Pass,0.2330004783,0.5001002850,Pass,Pass
 Warmup Convergence Information,THERMAL ZONE 7,SizingPeriod: SAN FRANCISCO INTL AP ANN CLG .4% CONDNS DP=>MDB,4.8685404335E-004,5.5179448518E-004,Pass,Pass,0.1791004273,0.4184064913,Pass,Pass
 Warmup Convergence Information,THERMAL ZONE 6,SizingPeriod: SAN FRANCISCO INTL AP ANN CLG .4% CONDNS DP=>MDB,8.4066444546E-002,0.2063562241,Pass,Pass,0.5122712751,3.1546655177,Pass,Pass
 Warmup Convergence Information,THERMAL ZONE 4,SizingPeriod: SAN FRANCISCO INTL AP ANN CLG .4% CONDNS DP=>MDB,8.4171159163E-002,0.1825915770,Pass,Pass,0.3167338497,1.5644515394,Pass,Pass
 Warmup Convergence Information,THERMAL ZONE 3,SizingPeriod: SAN FRANCISCO INTL AP ANN CLG .4% CONDNS DP=>MDB,8.3805968605E-002,0.1173199996,Pass,Pass,0.6832941409,5.0526579688,Pass,Pass
Environment,SAN FRANCISCO INTL AP ANN CLG 1% CONDNS DP=>MDB,SizingPeriod:DesignDay,08/21,08/21,SummerDesignDay,1,N/A,N/A,N/A,N/A,N/A,N/A
Environment:Daylight Saving,No,SizingPeriod:DesignDay
Environment:Design Day Data,19.20,8.50,DefaultMultipliers,101301,310,5.9,0.00,No ,No 
Environment:Design_Day_Misc,233,1106.3,0.2000,0.1216,1.0,-3.33,12.4,ASHRAETau
Environment:WarmupDays,  6
 Warmup Convergence Information,THERMAL ZONE 14,SizingPeriod: SAN FRANCISCO INTL AP ANN CLG 1% CONDNS DP=>MDB,8.4206242876E-002,0.1520357586,Pass,Pass,0.1597151366,0.4158557560,Pass,Pass
 Warmup Convergence Information,THERMAL ZONE 2,SizingPeriod: SAN FRANCISCO INTL AP ANN CLG 1% CONDNS DP=>MDB,8.3846461700E-002,0.1273494310,Pass,Pass,0.4494509640,2.2375914521,Pass,Pass
 Warmup Convergence Information,THERMAL ZONE 5,SizingPeriod: SAN FRANCISCO INTL AP ANN CLG 1% CONDNS DP=>MDB,6.5763936922E-004,6.8515479723E-004,Pass,Pass,0.3000352551,1.2374527716,Pass,Pass
 Warmup Convergence Information,THERMAL ZONE 15,SizingPeriod: SAN FRANCISCO INTL AP ANN CLG 1% CONDNS DP=>MDB,1.6251856594E-004,1.4934496498E-004,Pass,Pass,5.2655120738E-003,4.4912271234E-003,Pass,Pass
 Warmup Convergence Information,THERMAL ZONE 9,SizingPeriod: SAN FRANCISCO INTL AP ANN CLG 1% CONDNS DP=>MDB,8.3919772063E-002,0.1326515168,Pass,Pass,0.4726562200,3.0870113812,Pass,Pass
 Warmup Convergence Information,THERMAL ZONE 11,SizingPeriod: SAN FRANCISCO INTL AP ANN CLG 1% CONDNS DP=>MDB,8.3846441650E-002,0.1224911667,Pass,Pass,0.1849586812,0.4436424516,Pass,Pass
 Warmup Convergence Information,THERMAL ZONE 13,SizingPeriod: SAN FRANCISCO INTL AP ANN CLG 1% CONDNS DP=>MDB,8.3941525943E-002,0.1459315075,Pass,Pass,0.2438823767,0.5424012478,Pass,Pass
 Warmup Convergence Information,THERMAL ZONE 12,SizingPeriod: SAN FRANCISCO INTL AP ANN CLG 1% CONDNS DP=>MDB,3.3870569946E-003,2.4039124730E-003,Pass,Pass,3.7834434960E-004,2.6119751909E-004,Pass,Pass
 Warmup Convergence Information,THERMAL ZONE 8,SizingPeriod: SAN FRANCISCO INTL AP ANN CLG 1% CONDNS DP=>MDB,1.1573229722E-004,1.0367549627E-004,Pass,Pass,4.3689091894E-002,3.2618969267E-002,Pass,Pass
 Warmup Convergence Information,THERMAL ZONE 10,SizingPeriod: SAN FRANCISCO INTL AP ANN CLG 1% CONDNS DP=>MDB,1.5124399780E-003,2.5251136735E-003,Pass,Pass,4.0841001324E-002,3.9850784902E-002,Pass,Pass
 Warmup Convergence Information,THERMAL ZONE 1,SizingPeriod: SAN FRANCISCO INTL AP ANN CLG 1% CONDNS DP=>MDB,8.4026379829E-002,0.1465878682,Pass,Pass,0.2481493615,0.6330108311,Pass,Pass
 Warmup Convergence Information,THERMAL ZONE 7,SizingPeriod: SAN FRANCISCO INTL AP ANN CLG 1% CONDNS DP=>MDB,6.2537263942E-004,6.5331718038E-004,Pass,Pass,0.1811188916,0.3779827320,Pass,Pass
 Warmup Convergence Information,THERMAL ZONE 6,SizingPeriod: SAN FRANCISCO INTL AP ANN CLG 1% CONDNS DP=>MDB,8.4171711809E-002,0.2066354413,Pass,Pass,0.2360544462,0.8053629314,Pass,Pass
 Warmup Convergence Information,THERMAL ZONE 4,SizingPeriod: SAN FRANCISCO INTL AP ANN CLG 1% CONDNS DP=>MDB,8.4314290114E-002,0.1835998090,Pass,Pass,0.2380266993,0.9044600852,Pass,Pass
 Warmup Convergence Information,THERMAL ZONE 3,SizingPeriod: SAN FRANCISCO INTL AP ANN CLG 1% CONDNS DP=>MDB,8.3812817595E-002,0.1185065328,Pass,Pass,0.2606306276,1.0773651508,Pass,Pass
Environment,SAN FRANCISCO INTL AP ANN CLG .4% CONDNS ENTH=>MDB,SizingPeriod:DesignDay,08/21,08/21,SummerDesignDay,1,N/A,N/A,N/A,N/A,N/A,N/A
Environment:Daylight Saving,No,SizingPeriod:DesignDay
Environment:Design Day Data,25.80,8.50,DefaultMultipliers,101301,310,5.9,0.00,No ,No 
Environment:Design_Day_Misc,233,1106.3,0.2000,0.1216,1.0,-3.33,12.4,ASHRAETau
Environment:WarmupDays,  6
 Warmup Convergence Information,THERMAL ZONE 14,SizingPeriod: SAN FRANCISCO INTL AP ANN CLG .4% CONDNS ENTH=>MDB,8.3972330672E-002,0.1547727692,Pass,Pass,0.2983889336,1.1978435907,Pass,Pass
 Warmup Convergence Information,THERMAL ZONE 2,SizingPeriod: SAN FRANCISCO INTL AP ANN CLG .4% CONDNS ENTH=>MDB,8.3910863773E-002,0.1396972374,Pass,Pass,0.2013496322,0.6845869862,Pass,Pass
 Warmup Convergence Information,THERMAL ZONE 5,SizingPeriod: SAN FRANCISCO INTL AP ANN CLG .4% CONDNS ENTH=>MDB,1.9282107411E-002,3.3718083218E-002,Pass,Pass,0.2206534866,0.5904088229,Pass,Pass
 Warmup Convergence Information,THERMAL ZONE 15,SizingPeriod: SAN FRANCISCO INTL AP ANN CLG .4% CONDNS ENTH=>MDB,1.2861631593E-004,1.3220318419E-004,Pass,Pass,6.9758817170E-003,5.1908266952E-003,Pass,Pass
 Warmup Convergence Information,THERMAL ZONE 9,SizingPeriod: SAN FRANCISCO INTL AP ANN CLG .4% CONDNS ENTH=>MDB,8.3731721722E-002,0.1450454684,Pass,Pass,0.1477696735,0.3333878272,Pass,Pass
 Warmup Convergence Information,THERMAL ZONE 11,SizingPeriod: SAN FRANCISCO INTL AP ANN CLG .4% CONDNS ENTH=>MDB,8.3779716031E-002,0.1187197423,Pass,Pass,0.1755625664,0.3887831066,Pass,Pass
 Warmup Convergence Information,THERMAL ZONE 13,SizingPeriod: SAN FRANCISCO INTL AP ANN CLG .4% CONDNS ENTH=>MDB,8.3783645210E-002,0.1354580256,Pass,Pass,5.3858679528,50.3693167209,Pass,Pass
 Warmup Convergence Information,THERMAL ZONE 12,SizingPeriod: SAN FRANCISCO INTL AP ANN CLG .4% CONDNS ENTH=>MDB,7.2566447356E-003,1.1740931035E-002,Pass,Pass,4.0987095686E-003,1.4696588201E-002,Pass,Pass
 Warmup Convergence Information,THERMAL ZONE 8,SizingPeriod: SAN FRANCISCO INTL AP ANN CLG .4% CONDNS ENTH=>MDB,9.4162346494E-005,1.0100814876E-004,Pass,Pass,0.1689006354,0.3103187211,Pass,Pass
 Warmup Convergence Information,THERMAL ZONE 10,SizingPeriod: SAN FRANCISCO INTL AP ANN CLG .4% CONDNS ENTH=>MDB,1.0094215420E-003,1.0881109993E-003,Pass,Pass,0.2179672389,0.4840187523,Pass,Pass
 Warmup Convergence Information,THERMAL ZONE 1,SizingPeriod: SAN FRANCISCO INTL AP ANN CLG .4% CONDNS ENTH=>MDB,8.3805280901E-002,0.1341216961,Pass,Pass,8.5497742066E-002,7.7186433099E-002,Pass,Pass
 Warmup Convergence Information,THERMAL ZONE 7,SizingPeriod: SAN FRANCISCO INTL AP ANN CLG .4% CONDNS ENTH=>MDB,1.6101143712E-002,3.1902337137E-002,Pass,Pass,0.2390893717,0.7598847271,Pass,Pass
 Warmup Convergence Information,THERMAL ZONE 6,SizingPeriod: SAN FRANCISCO INTL AP ANN CLG .4% CONDNS ENTH=>MDB,8.3995399996E-002,0.2025208148,Pass,Pass,0.1990292989,0.4614062670,Pass,Pass
 Warmup Convergence Information,THERMAL ZONE 4,SizingPeriod: SAN FRANCISCO INTL AP ANN CLG .4% CONDNS ENTH=>MDB,8.4046660068E-002,0.1760496157,Pass,Pass,0.2587012173,1.1736841997,Pass,Pass
 Warmup Convergence Information,THERMAL ZONE 3,SizingPeriod: SAN FRANCISCO INTL AP ANN CLG .4% CONDNS ENTH=>MDB,8.3652401911E-002,0.1150585757,Pass,Pass,0.1989763222,0.5438644046,Pass,Pass
Environment,SAN FRANCISCO INTL AP ANN CLG 1% CONDNS DB=>MWB,SizingPeriod:DesignDay,08/21,08/21,SummerDesignDay,1,N/A,N/A,N/A,N/A,N/A,N/A
Environment:Daylight Saving,No,SizingPeriod:DesignDay
Environment:Design Day Data,25.70,8.50,DefaultMultipliers,101301,310,5.9,0.00,No ,No 
Environment:Design_Day_Misc,233,1106.3,0.2000,0.1216,1.0,-3.33,12.4,ASHRAETau
Environment:WarmupDays,  6
 Warmup Convergence Information,THERMAL ZONE 14,SizingPeriod: SAN FRANCISCO INTL AP ANN CLG 1% CONDNS DB=>MWB,8.4081427882E-002,0.1563435115,Pass,Pass,0.2464282644,0.8645113910,Pass,Pass
 Warmup Convergence Information,THERMAL ZONE 2,SizingPeriod: SAN FRANCISCO INTL AP ANN CLG 1% CONDNS DB=>MWB,8.3750787400E-002,0.1392091670,Pass,Pass,0.8111245174,6.7171190140,Pass,Pass
 Warmup Convergence Information,THERMAL ZONE 5,SizingPeriod: SAN FRANCISCO INTL AP ANN CLG 1% CONDNS DB=>MWB,1.7194047794E-002,3.2317249070E-002,Pass,Pass,0.1944609914,0.4263194500,Pass,Pass
 Warmup Convergence Information,THERMAL ZONE 15,SizingPeriod: SAN FRANCISCO INTL AP ANN CLG 1% CONDNS DB=>MWB,1.2054408390E-004,1.0782053846E-004,Pass,Pass,6.5553997918E-003,4.6268305509E-003,Pass,Pass
 Warmup Convergence Information,THERMAL ZONE 9,SizingPeriod: SAN FRANCISCO INTL AP ANN CLG 1% CONDNS DB=>MWB,8.3661171705E-002,0.1441515857,Pass,Pass,0.1421820039,0.3038997877,Pass,Pass
 Warmup Convergence Information,THERMAL ZONE 11,SizingPeriod: SAN FRANCISCO INTL AP ANN CLG 1% CONDNS DB=>MWB,8.3687157246E-002,0.1199640084,Pass,Pass,0.1551224843,0.2952299355,Pass,Pass
 Warmup Convergence Information,THERMAL ZONE 13,SizingPeriod: SAN FRANCISCO INTL AP ANN CLG 1% CONDNS DB=>MWB,8.3783517543E-002,0.1357846614,Pass,Pass,0.2886840085,1.1011686255,Pass,Pass
 Warmup Convergence Information,THERMAL ZONE 12,SizingPeriod: SAN FRANCISCO INTL AP ANN CLG 1% CONDNS DB=>MWB,3.5427175227E-003,2.3616482356E-003,Pass,Pass,3.6275512445E-004,2.4017057494E-004,Pass,Pass
 Warmup Convergence Information,THERMAL ZONE 8,SizingPeriod: SAN FRANCISCO INTL AP ANN CLG 1% CONDNS DB=>MWB,9.1662347316E-005,7.3311048405E-005,Pass,Pass,0.3039213581,1.4811047141,Pass,Pass
 Warmup Convergence Information,THERMAL ZONE 10,SizingPeriod: SAN FRANCISCO INTL AP ANN CLG 1% CONDNS DB=>MWB,9.8563098176E-004,9.4067854115E-004,Pass,Pass,0.2791412543,1.2721339209,Pass,Pass
 Warmup Convergence Information,THERMAL ZONE 1,SizingPeriod: SAN FRANCISCO INTL AP ANN CLG 1% CONDNS DB=>MWB,8.3810261083E-002,0.1344807861,Pass,Pass,9.5998018934E-002,0.1025038391,Pass,Pass
 Warmup Convergence Information,THERMAL ZONE 7,SizingPeriod: SAN FRANCISCO INTL AP ANN CLG 1% CONDNS DB=>MWB,1.4314977767E-002,2.9718080490E-002,Pass,Pass,0.2188624334,0.5796673125,Pass,Pass
 Warmup Convergence Information,THERMAL ZONE 6,SizingPeriod: SAN FRANCISCO INTL AP ANN CLG 1% CONDNS DB=>MWB,8.4077031913E-002,0.2045612864,Pass,Pass,0.2185460920,0.6581508811,Pass,Pass
 Warmup Convergence Information,THERMAL ZONE 4,SizingPeriod: SAN FRANCISCO INTL AP ANN CLG 1% CONDNS DB=>MWB,8.3886737145E-002,0.1766687515,Pass,Pass,0.1764257201,0.4813406112,Pass,Pass
 Warmup Convergence Information,THERMAL ZONE 3,SizingPeriod: SAN FRANCISCO INTL AP ANN CLG 1% CONDNS DB=>MWB,8.3636446922E-002,0.1153559616,Pass,Pass,0.6497246512,4.6362597968,Pass,Pass
Environment,SAN FRANCISCO INTL AP ANN HUM_N 99.6% CONDNS DP=>MCDB,SizingPeriod:DesignDay,01/21,01/21,WinterDesignDay,1,N/A,N/A,N/A,N/A,N/A,N/A
Environment:Daylight Saving,No,SizingPeriod:DesignDay
Environment:Design Day Data,10.70,0.00,DefaultMultipliers,101301,150,2.2,0.00,No ,No 
Environment:Design_Day_Misc, 21,1229.0,0.1415,5.7310E-002,1.0,-11.15,-20.1,ASHRAEClearSky
Environment:WarmupDays,  6
 Warmup Convergence Information,THERMAL ZONE 14,SizingPeriod: SAN FRANCISCO INTL AP ANN HUM_N 99.6% CONDNS DP=>MCDB,1.4439000592E-005,1.0119953403E-005,Pass,Pass,1.7364128019E-005,1.1055228268E-005,Pass,Pass
 Warmup Convergence Information,THERMAL ZONE 2,SizingPeriod: SAN FRANCISCO INTL AP ANN HUM_N 99.6% CONDNS DP=>MCDB,2.6985145584E-003,1.5868023925E-003,Pass,Pass,3.1415892911E-003,2.3715189550E-003,Pass,Pass
 Warmup Convergence Information,THERMAL ZONE 5,SizingPeriod: SAN FRANCISCO INTL AP ANN HUM_N 99.6% CONDNS DP=>MCDB,2.4601848671E-003,1.7106509996E-005,Pass,Pass,4.9891603033E-003,2.2331477102E-005,Pass,Pass
 Warmup Convergence Information,THERMAL ZONE 15,SizingPeriod: SAN FRANCISCO INTL AP ANN HUM_N 99.6% CONDNS DP=>MCDB,6.1368602352E-005,1.0267199712E-005,Pass,Pass,1.8319170083E-005,1.2416411880E-005,Pass,Pass
 Warmup Convergence Information,THERMAL ZONE 9,SizingPeriod: SAN FRANCISCO INTL AP ANN HUM_N 99.6% CONDNS DP=>MCDB,2.2611845843E-003,2.0904527991E-005,Pass,Pass,5.1269519984E-003,1.9417190125E-005,Pass,Pass
 Warmup Convergence Information,THERMAL ZONE 11,SizingPeriod: SAN FRANCISCO INTL AP ANN HUM_N 99.6% CONDNS DP=>MCDB,2.2399277867E-003,7.3713714602E-004,Pass,Pass,4.0327356174E-003,1.6489843484E-003,Pass,Pass
 Warmup Convergence Information,THERMAL ZONE 13,SizingPeriod: SAN FRANCISCO INTL AP ANN HUM_N 99.6% CONDNS DP=>MCDB,1.3006547706E-004,4.5721016561E-004,Pass,Pass,9.1530099558E-005,5.1057622423E-004,Pass,Pass
 Warmup Convergence Information,THERMAL ZONE 12,SizingPeriod: SAN FRANCISCO INTL AP ANN HUM_N 99.6% CONDNS DP=>MCDB,1.8026180976E-005,5.7762703668E-006,Pass,Pass,1.7310641395E-005,1.1219825631E-005,Pass,Pass
 Warmup Convergence Information,THERMAL ZONE 8,SizingPeriod: SAN FRANCISCO INTL AP ANN HUM_N 99.6% CONDNS DP=>MCDB,6.9312271810E-005,1.1937142656E-005,Pass,Pass,1.8892210578E-005,1.2873795210E-005,Pass,Pass
 Warmup Convergence Information,THERMAL ZONE 10,SizingPeriod: SAN FRANCISCO INTL AP ANN HUM_N 99.6% CONDNS DP=>MCDB,1.4099707919E-005,9.8794591859E-006,Pass,Pass,1.7372549557E-005,1.1050157908E-005,Pass,Pass
 Warmup Convergence Information,THERMAL ZONE 1,SizingPeriod: SAN FRANCISCO INTL AP ANN HUM_N 99.6% CONDNS DP=>MCDB,1.2785927179E-003,1.1593406866E-003,Pass,Pass,1.4704604267E-003,1.6012826149E-003,Pass,Pass
 Warmup Convergence Information,THERMAL ZONE 7,SizingPeriod: SAN FRANCISCO INTL AP ANN HUM_N 99.6% CONDNS DP=>MCDB,2.5664295731E-003,1.3306316396E-003,Pass,Pass,4.0582926425E-003,2.6720838659E-003,Pass,Pass
 Warmup Convergence Information,THERMAL ZONE 6,SizingPeriod: SAN FRANCISCO INTL AP ANN HUM_N 99.6% CONDNS DP=>MCDB,2.1474911819E-003,2.3070823679E-003,Pass,Pass,1.7344903506E-003,2.4212048159E-003,Pass,Pass
 Warmup Convergence Information,THERMAL ZONE 4,SizingPeriod: SAN FRANCISCO INTL AP ANN HUM_N 99.6% CONDNS DP=>MCDB,3.2359275567E-003,1.7215270690E-003,Pass,Pass,3.1201358287E-003,2.2423048421E-003,Pass,Pass
 Warmup Convergence Information,THERMAL ZONE 3,SizingPeriod: SAN FRANCISCO INTL AP ANN HUM_N 99.6% CONDNS DP=>MCDB,4.6450746914E-004,1.1917969744E-003,Pass,Pass,4.1804992774E-004,1.3027091664E-003,Pass,Pass
Environment,SAN FRANCISCO INTL AP ANN CLG 2% CONDNS ENTH=>MDB,SizingPeriod:DesignDay,08/21,08/21,SummerDesignDay,1,N/A,N/A,N/A,N/A,N/A,N/A
Environment:Daylight Saving,No,SizingPeriod:DesignDay
Environment:Design Day Data,22.40,8.50,DefaultMultipliers,101301,310,5.9,0.00,No ,No 
Environment:Design_Day_Misc,233,1106.3,0.2000,0.1216,1.0,-3.33,12.4,ASHRAETau
Environment:WarmupDays,  6
 Warmup Convergence Information,THERMAL ZONE 14,SizingPeriod: SAN FRANCISCO INTL AP ANN CLG 2% CONDNS ENTH=>MDB,8.4032633705E-002,0.1568108904,Pass,Pass,1.8512721205,16.5113358815,Pass,Pass
 Warmup Convergence Information,THERMAL ZONE 2,SizingPeriod: SAN FRANCISCO INTL AP ANN CLG 2% CONDNS ENTH=>MDB,8.4738180312E-002,0.1357491948,Pass,Pass,0.2435394122,0.8553041003,Pass,Pass
 Warmup Convergence Information,THERMAL ZONE 5,SizingPeriod: SAN FRANCISCO INTL AP ANN CLG 2% CONDNS ENTH=>MDB,2.3502338752E-003,9.5606492003E-003,Pass,Pass,0.2357796297,0.6124120736,Pass,Pass
 Warmup Convergence Information,THERMAL ZONE 15,SizingPeriod: SAN FRANCISCO INTL AP ANN CLG 2% CONDNS ENTH=>MDB,1.3724244224E-004,1.3703089629E-004,Pass,Pass,5.7066830240E-003,4.3711287349E-003,Pass,Pass
 Warmup Convergence Information,THERMAL ZONE 9,SizingPeriod: SAN FRANCISCO INTL AP ANN CLG 2% CONDNS ENTH=>MDB,8.4205393605E-002,0.1401397235,Pass,Pass,0.1911785776,0.5248834615,Pass,Pass
 Warmup Convergence Information,THERMAL ZONE 11,SizingPeriod: SAN FRANCISCO INTL AP ANN CLG 2% CONDNS ENTH=>MDB,8.3825631889E-002,0.1246278753,Pass,Pass,0.3180711092,1.6689477350,Pass,Pass
 Warmup Convergence Information,THERMAL ZONE 13,SizingPeriod: SAN FRANCISCO INTL AP ANN CLG 2% CONDNS ENTH=>MDB,8.4090866269E-002,0.1378700543,Pass,Pass,0.2201913128,0.4667674299,Pass,Pass
 Warmup Convergence Information,THERMAL ZONE 12,SizingPeriod: SAN FRANCISCO INTL AP ANN CLG 2% CONDNS ENTH=>MDB,1.0681744613E-002,1.3210571002E-002,Pass,Pass,4.6796696035E-003,1.4953541334E-002,Pass,Pass
 Warmup Convergence Information,THERMAL ZONE 8,SizingPeriod: SAN FRANCISCO INTL AP ANN CLG 2% CONDNS ENTH=>MDB,1.1257554185E-004,1.3128885428E-004,Pass,Pass,0.2212503217,0.5466775717,Pass,Pass
 Warmup Convergence Information,THERMAL ZONE 10,SizingPeriod: SAN FRANCISCO INTL AP ANN CLG 2% CONDNS ENTH=>MDB,1.1360012850E-003,1.2120236013E-003,Pass,Pass,5.8531352605E-002,5.2887262863E-002,Pass,Pass
 Warmup Convergence Information,THERMAL ZONE 1,SizingPeriod: SAN FRANCISCO INTL AP ANN CLG 2% CONDNS ENTH=>MDB,8.4094413441E-002,0.1389334715,Pass,Pass,0.3642068073,1.7505961104,Pass,Pass
 Warmup Convergence Information,THERMAL ZONE 7,SizingPeriod: SAN FRANCISCO INTL AP ANN CLG 2% CONDNS ENTH=>MDB,1.4522731612E-003,5.2822137919E-003,Pass,Pass,0.4847057819,2.2191271439,Pass,Pass
 Warmup Convergence Information,THERMAL ZONE 6,SizingPeriod: SAN FRANCISCO INTL AP ANN CLG 2% CONDNS ENTH=>MDB,8.4286032945E-002,0.2032285840,Pass,Pass,0.2382862570,1.0020412309,Pass,Pass
 Warmup Convergence Information,THERMAL ZONE 4,SizingPeriod: SAN FRANCISCO INTL AP ANN CLG 2% CONDNS ENTH=>MDB,8.4158069150E-002,0.1786120805,Pass,Pass,1.2800561179,10.9780501295,Pass,Pass
 Warmup Convergence Information,THERMAL ZONE 3,SizingPeriod: SAN FRANCISCO INTL AP ANN CLG 2% CONDNS ENTH=>MDB,8.3773384901E-002,0.1208040461,Pass,Pass,0.1935652047,0.5766131706,Pass,Pass
Environment,SAN FRANCISCO INTL AP ANN CLG 2% CONDNS WB=>MDB,SizingPeriod:DesignDay,08/21,08/21,SummerDesignDay,1,N/A,N/A,N/A,N/A,N/A,N/A
Environment:Daylight Saving,No,SizingPeriod:DesignDay
Environment:Design Day Data,22.40,8.50,DefaultMultipliers,101301,310,5.9,0.00,No ,No 
Environment:Design_Day_Misc,233,1106.3,0.2000,0.1216,1.0,-3.33,12.4,ASHRAETau
Environment:WarmupDays,  6
 Warmup Convergence Information,THERMAL ZONE 14,SizingPeriod: SAN FRANCISCO INTL AP ANN CLG 2% CONDNS WB=>MDB,8.4106684523E-002,0.1549828623,Pass,Pass,0.5615799835,4.0756786341,Pass,Pass
 Warmup Convergence Information,THERMAL ZONE 2,SizingPeriod: SAN FRANCISCO INTL AP ANN CLG 2% CONDNS WB=>MDB,8.3816221939E-002,0.1328916180,Pass,Pass,0.1911333832,0.5292936962,Pass,Pass
 Warmup Convergence Information,THERMAL ZONE 5,SizingPeriod: SAN FRANCISCO INTL AP ANN CLG 2% CONDNS WB=>MDB,5.3143633368E-004,5.7548791049E-004,Pass,Pass,0.5187994792,2.8255252763,Pass,Pass
 Warmup Convergence Information,THERMAL ZONE 15,SizingPeriod: SAN FRANCISCO INTL AP ANN CLG 2% CONDNS WB=>MDB,1.2470254024E-004,1.2502258688E-004,Pass,Pass,5.6202574439E-003,4.1749731975E-003,Pass,Pass
 Warmup Convergence Information,THERMAL ZONE 9,SizingPeriod: SAN FRANCISCO INTL AP ANN CLG 2% CONDNS WB=>MDB,8.3745961025E-002,0.1381413962,Pass,Pass,0.1865898168,0.4984173621,Pass,Pass
 Warmup Convergence Information,THERMAL ZONE 11,SizingPeriod: SAN FRANCISCO INTL AP ANN CLG 2% CONDNS WB=>MDB,8.3789536329E-002,0.1206463491,Pass,Pass,0.1729455371,0.3863041388,Pass,Pass
 Warmup Convergence Information,THERMAL ZONE 13,SizingPeriod: SAN FRANCISCO INTL AP ANN CLG 2% CONDNS WB=>MDB,8.3890916728E-002,0.1384537243,Pass,Pass,0.2228457553,0.4925287106,Pass,Pass
 Warmup Convergence Information,THERMAL ZONE 12,SizingPeriod: SAN FRANCISCO INTL AP ANN CLG 2% CONDNS WB=>MDB,3.5241444191E-003,2.4087724393E-003,Pass,Pass,3.4230430300E-004,2.3186525185E-004,Pass,Pass
 Warmup Convergence Information,THERMAL ZONE 8,SizingPeriod: SAN FRANCISCO INTL AP ANN CLG 2% CONDNS WB=>MDB,9.8258459190E-005,8.0035157867E-005,Pass,Pass,0.4830380920,2.8305844527,Pass,Pass
 Warmup Convergence Information,THERMAL ZONE 10,SizingPeriod: SAN FRANCISCO INTL AP ANN CLG 2% CONDNS WB=>MDB,1.0069352050E-003,1.1303090527E-003,Pass,Pass,5.6602031456E-002,5.1583888468E-002,Pass,Pass
 Warmup Convergence Information,THERMAL ZONE 1,SizingPeriod: SAN FRANCISCO INTL AP ANN CLG 2% CONDNS WB=>MDB,8.3906078663E-002,0.1393155650,Pass,Pass,0.2180897881,0.4711059752,Pass,Pass
 Warmup Convergence Information,THERMAL ZONE 7,SizingPeriod: SAN FRANCISCO INTL AP ANN CLG 2% CONDNS WB=>MDB,5.2409710422E-004,5.6458844264E-004,Pass,Pass,0.2384252390,0.6300885159,Pass,Pass
 Warmup Convergence Information,THERMAL ZONE 6,SizingPeriod: SAN FRANCISCO INTL AP ANN CLG 2% CONDNS WB=>MDB,8.4177892306E-002,0.2034996207,Pass,Pass,0.4887869968,3.4097338861,Pass,Pass
 Warmup Convergence Information,THERMAL ZONE 4,SizingPeriod: SAN FRANCISCO INTL AP ANN CLG 2% CONDNS WB=>MDB,8.4105247661E-002,0.1805539939,Pass,Pass,0.9916567535,8.2245811154,Pass,Pass
 Warmup Convergence Information,THERMAL ZONE 3,SizingPeriod: SAN FRANCISCO INTL AP ANN CLG 2% CONDNS WB=>MDB,8.3721061205E-002,0.1163658044,Pass,Pass,0.2842930366,1.4132558185,Pass,Pass
Environment,SAN FRANCISCO INTL AP ANN CLG .4% CONDNS DB=>MWB,SizingPeriod:DesignDay,08/21,08/21,SummerDesignDay,1,N/A,N/A,N/A,N/A,N/A,N/A
Environment:Daylight Saving,No,SizingPeriod:DesignDay
Environment:Design Day Data,28.30,8.50,DefaultMultipliers,101301,310,5.9,0.00,No ,No 
Environment:Design_Day_Misc,233,1106.3,0.2000,0.1216,1.0,-3.33,12.4,ASHRAETau
Environment:WarmupDays,  6
 Warmup Convergence Information,THERMAL ZONE 14,SizingPeriod: SAN FRANCISCO INTL AP ANN CLG .4% CONDNS DB=>MWB,8.3883075890E-002,0.1572805608,Pass,Pass,0.2118798854,0.5784163398,Pass,Pass
 Warmup Convergence Information,THERMAL ZONE 2,SizingPeriod: SAN FRANCISCO INTL AP ANN CLG .4% CONDNS DB=>MWB,8.3538566274E-002,0.1416439702,Pass,Pass,7.1599404697E-002,8.5730688756E-002,Pass,Pass
 Warmup Convergence Information,THERMAL ZONE 5,SizingPeriod: SAN FRANCISCO INTL AP ANN CLG .4% CONDNS DB=>MWB,3.1415908841E-002,3.9157256615E-002,Pass,Pass,0.7616852353,5.8037925679,Pass,Pass
 Warmup Convergence Information,THERMAL ZONE 15,SizingPeriod: SAN FRANCISCO INTL AP ANN CLG .4% CONDNS DB=>MWB,9.6221885369E-005,8.4942858259E-005,Pass,Pass,8.2030309786E-003,5.1256493325E-003,Pass,Pass
 Warmup Convergence Information,THERMAL ZONE 9,SizingPeriod: SAN FRANCISCO INTL AP ANN CLG .4% CONDNS DB=>MWB,8.3607868980E-002,0.1455640451,Pass,Pass,0.1422992858,0.3581002999,Pass,Pass
 Warmup Convergence Information,THERMAL ZONE 11,SizingPeriod: SAN FRANCISCO INTL AP ANN CLG .4% CONDNS DB=>MWB,8.3585872455E-002,0.1188069128,Pass,Pass,0.1041874380,0.1396778231,Pass,Pass
 Warmup Convergence Information,THERMAL ZONE 13,SizingPeriod: SAN FRANCISCO INTL AP ANN CLG .4% CONDNS DB=>MWB,8.3730705799E-002,0.1339133688,Pass,Pass,6.8133216705E-002,5.9049804804E-002,Pass,Pass
 Warmup Convergence Information,THERMAL ZONE 12,SizingPeriod: SAN FRANCISCO INTL AP ANN CLG .4% CONDNS DB=>MWB,3.5680746679E-003,2.3725845880E-003,Pass,Pass,3.6762168000E-004,2.5765827205E-004,Pass,Pass
 Warmup Convergence Information,THERMAL ZONE 8,SizingPeriod: SAN FRANCISCO INTL AP ANN CLG .4% CONDNS DB=>MWB,7.1303179599E-005,6.5164486678E-005,Pass,Pass,4.1738774301E-002,2.4941397902E-002,Pass,Pass
 Warmup Convergence Information,THERMAL ZONE 10,SizingPeriod: SAN FRANCISCO INTL AP ANN CLG .4% CONDNS DB=>MWB,5.9410975218E-004,6.5759447763E-004,Pass,Pass,0.2992364881,0.8650274187,Pass,Pass
 Warmup Convergence Information,THERMAL ZONE 1,SizingPeriod: SAN FRANCISCO INTL AP ANN CLG .4% CONDNS DB=>MWB,8.3623262548E-002,0.1315141261,Pass,Pass,5.6225483663E-002,5.0679981312E-002,Pass,Pass
 Warmup Convergence Information,THERMAL ZONE 7,SizingPeriod: SAN FRANCISCO INTL AP ANN CLG .4% CONDNS DB=>MWB,2.6247190208E-002,3.9867540167E-002,Pass,Pass,0.7315860757,4.4629497477,Pass,Pass
 Warmup Convergence Information,THERMAL ZONE 6,SizingPeriod: SAN FRANCISCO INTL AP ANN CLG .4% CONDNS DB=>MWB,8.3862248982E-002,0.2046811161,Pass,Pass,0.7022479170,4.6995909453,Pass,Pass
 Warmup Convergence Information,THERMAL ZONE 4,SizingPeriod: SAN FRANCISCO INTL AP ANN CLG .4% CONDNS DB=>MWB,8.3842576642E-002,0.1776970889,Pass,Pass,0.2851053537,1.3747000412,Pass,Pass
 Warmup Convergence Information,THERMAL ZONE 3,SizingPeriod: SAN FRANCISCO INTL AP ANN CLG .4% CONDNS DB=>MWB,8.3560636299E-002,0.1140287210,Pass,Pass,5.9784928519E-002,5.3373448906E-002,Pass,Pass
Environment,SAN FRANCISCO INTL AP ANN CLG 1% CONDNS WB=>MDB,SizingPeriod:DesignDay,08/21,08/21,SummerDesignDay,1,N/A,N/A,N/A,N/A,N/A,N/A
Environment:Daylight Saving,No,SizingPeriod:DesignDay
Environment:Design Day Data,23.90,8.50,DefaultMultipliers,101301,310,5.9,0.00,No ,No 
Environment:Design_Day_Misc,233,1106.3,0.2000,0.1216,1.0,-3.33,12.4,ASHRAETau
Environment:WarmupDays,  6
 Warmup Convergence Information,THERMAL ZONE 14,SizingPeriod: SAN FRANCISCO INTL AP ANN CLG 1% CONDNS WB=>MDB,8.3950861285E-002,0.1566822523,Pass,Pass,0.1716078248,0.4398737049,Pass,Pass
 Warmup Convergence Information,THERMAL ZONE 2,SizingPeriod: SAN FRANCISCO INTL AP ANN CLG 1% CONDNS WB=>MDB,8.3807565983E-002,0.1350123203,Pass,Pass,0.2850918308,1.5353245406,Pass,Pass
 Warmup Convergence Information,THERMAL ZONE 5,SizingPeriod: SAN FRANCISCO INTL AP ANN CLG 1% CONDNS WB=>MDB,8.2556066941E-003,1.8178699438E-002,Pass,Pass,0.2176368014,0.5452168121,Pass,Pass
 Warmup Convergence Information,THERMAL ZONE 15,SizingPeriod: SAN FRANCISCO INTL AP ANN CLG 1% CONDNS WB=>MDB,1.0721575789E-004,9.6907654894E-005,Pass,Pass,5.5802249014E-003,4.4360161537E-003,Pass,Pass
 Warmup Convergence Information,THERMAL ZONE 9,SizingPeriod: SAN FRANCISCO INTL AP ANN CLG 1% CONDNS WB=>MDB,8.3736201809E-002,0.1402925224,Pass,Pass,0.3439960176,1.6296006180,Pass,Pass
 Warmup Convergence Information,THERMAL ZONE 11,SizingPeriod: SAN FRANCISCO INTL AP ANN CLG 1% CONDNS WB=>MDB,8.3648762243E-002,0.1203111837,Pass,Pass,0.2525492257,0.8828375015,Pass,Pass
 Warmup Convergence Information,THERMAL ZONE 13,SizingPeriod: SAN FRANCISCO INTL AP ANN CLG 1% CONDNS WB=>MDB,8.3820596341E-002,0.1382659794,Pass,Pass,0.2473923917,0.6735293436,Pass,Pass
 Warmup Convergence Information,THERMAL ZONE 12,SizingPeriod: SAN FRANCISCO INTL AP ANN CLG 1% CONDNS WB=>MDB,3.5341866623E-003,2.4329732235E-003,Pass,Pass,3.4746384895E-004,2.3717910898E-004,Pass,Pass
 Warmup Convergence Information,THERMAL ZONE 8,SizingPeriod: SAN FRANCISCO INTL AP ANN CLG 1% CONDNS WB=>MDB,1.1176588313E-004,9.0495120356E-005,Pass,Pass,0.2287443142,0.5989820224,Pass,Pass
 Warmup Convergence Information,THERMAL ZONE 10,SizingPeriod: SAN FRANCISCO INTL AP ANN CLG 1% CONDNS WB=>MDB,9.6072376266E-004,1.0594343050E-003,Pass,Pass,7.2293919713E-002,6.4325943576E-002,Pass,Pass
 Warmup Convergence Information,THERMAL ZONE 1,SizingPeriod: SAN FRANCISCO INTL AP ANN CLG 1% CONDNS WB=>MDB,8.3802284140E-002,0.1375686102,Pass,Pass,0.5584245950,3.8422448304,Pass,Pass
 Warmup Convergence Information,THERMAL ZONE 7,SizingPeriod: SAN FRANCISCO INTL AP ANN CLG 1% CONDNS WB=>MDB,6.8681527439E-003,1.3187817438E-002,Pass,Pass,0.2127673229,0.5249248081,Pass,Pass
 Warmup Convergence Information,THERMAL ZONE 6,SizingPeriod: SAN FRANCISCO INTL AP ANN CLG 1% CONDNS WB=>MDB,8.4053171022E-002,0.2035735993,Pass,Pass,1.5688975043,13.6542547137,Pass,Pass
 Warmup Convergence Information,THERMAL ZONE 4,SizingPeriod: SAN FRANCISCO INTL AP ANN CLG 1% CONDNS WB=>MDB,8.3944730794E-002,0.1799464808,Pass,Pass,1.2048713020,9.8801657473,Pass,Pass
 Warmup Convergence Information,THERMAL ZONE 3,SizingPeriod: SAN FRANCISCO INTL AP ANN CLG 1% CONDNS WB=>MDB,8.3708172300E-002,0.1160440242,Pass,Pass,0.1751732587,0.4532639002,Pass,Pass
Environment,SAN FRANCISCO INTL AP ANN CLG 2% CONDNS DP=>MDB,SizingPeriod:DesignDay,08/21,08/21,SummerDesignDay,1,N/A,N/A,N/A,N/A,N/A,N/A
Environment:Daylight Saving,No,SizingPeriod:DesignDay
Environment:Design Day Data,18.70,8.50,DefaultMultipliers,101301,310,5.9,0.00,No ,No 
Environment:Design_Day_Misc,233,1106.3,0.2000,0.1216,1.0,-3.33,12.4,ASHRAETau
Environment:WarmupDays,  6
 Warmup Convergence Information,THERMAL ZONE 14,SizingPeriod: SAN FRANCISCO INTL AP ANN CLG 2% CONDNS DP=>MDB,8.4285935623E-002,0.1511107265,Pass,Pass,0.1823951305,0.5862982856,Pass,Pass
 Warmup Convergence Information,THERMAL ZONE 2,SizingPeriod: SAN FRANCISCO INTL AP ANN CLG 2% CONDNS DP=>MDB,8.3846043293E-002,0.1264556738,Pass,Pass,0.2566700864,1.0085431001,Pass,Pass
 Warmup Convergence Information,THERMAL ZONE 5,SizingPeriod: SAN FRANCISCO INTL AP ANN CLG 2% CONDNS DP=>MDB,6.5679028719E-004,5.9626910095E-004,Pass,Pass,7.1589126501,68.4211271754,Pass,Pass
 Warmup Convergence Information,THERMAL ZONE 15,SizingPeriod: SAN FRANCISCO INTL AP ANN CLG 2% CONDNS DP=>MDB,1.7178416875E-004,1.5243445498E-004,Pass,Pass,5.6156825359E-003,4.3773045963E-003,Pass,Pass
 Warmup Convergence Information,THERMAL ZONE 9,SizingPeriod: SAN FRANCISCO INTL AP ANN CLG 2% CONDNS DP=>MDB,8.3918563438E-002,0.1311760197,Pass,Pass,0.2792567349,1.2037756082,Pass,Pass
 Warmup Convergence Information,THERMAL ZONE 11,SizingPeriod: SAN FRANCISCO INTL AP ANN CLG 2% CONDNS DP=>MDB,8.3834872576E-002,0.1234437983,Pass,Pass,0.1651950700,0.3583771392,Pass,Pass
 Warmup Convergence Information,THERMAL ZONE 13,SizingPeriod: SAN FRANCISCO INTL AP ANN CLG 2% CONDNS DP=>MDB,8.3880100279E-002,0.1466182626,Pass,Pass,0.2336144351,0.5047134023,Pass,Pass
 Warmup Convergence Information,THERMAL ZONE 12,SizingPeriod: SAN FRANCISCO INTL AP ANN CLG 2% CONDNS DP=>MDB,3.3680151956E-003,2.3763182879E-003,Pass,Pass,4.1924940692E-004,5.1340148599E-004,Pass,Pass
 Warmup Convergence Information,THERMAL ZONE 8,SizingPeriod: SAN FRANCISCO INTL AP ANN CLG 2% CONDNS DP=>MDB,1.3856892177E-004,1.0938742508E-004,Pass,Pass,3.8129896039E-002,2.7230850233E-002,Pass,Pass
 Warmup Convergence Information,THERMAL ZONE 10,SizingPeriod: SAN FRANCISCO INTL AP ANN CLG 2% CONDNS DP=>MDB,2.2910665305E-003,6.2366979675E-003,Pass,Pass,3.9024694672E-002,3.8843951859E-002,Pass,Pass
 Warmup Convergence Information,THERMAL ZONE 1,SizingPeriod: SAN FRANCISCO INTL AP ANN CLG 2% CONDNS DP=>MDB,8.3949484928E-002,0.1475271123,Pass,Pass,0.3440521313,1.2197641996,Pass,Pass
 Warmup Convergence Information,THERMAL ZONE 7,SizingPeriod: SAN FRANCISCO INTL AP ANN CLG 2% CONDNS DP=>MDB,7.0143917739E-004,7.4364322211E-004,Pass,Pass,0.3500117231,1.8514331415,Pass,Pass
 Warmup Convergence Information,THERMAL ZONE 6,SizingPeriod: SAN FRANCISCO INTL AP ANN CLG 2% CONDNS DP=>MDB,8.4229710878E-002,0.2072465644,Pass,Pass,0.1952692618,0.5779421459,Pass,Pass
 Warmup Convergence Information,THERMAL ZONE 4,SizingPeriod: SAN FRANCISCO INTL AP ANN CLG 2% CONDNS DP=>MDB,8.4143374626E-002,0.1841623509,Pass,Pass,0.1733026630,0.4415881308,Pass,Pass
[...]
 Warmup Convergence Information,THERMAL ZONE 3,SizingPeriod: SAN FRANCISCO INTL AP ANN HUM_N 99% CONDNS DP=>MCDB,2.6481840879E-003,1.2517193945E-003,Pass,Pass,3.4900318591E-003,2.1952156204E-003,Pass,Pass
Environment,SAN FRANCISCO INTL AP ANN HTG 99.6% CONDNS DB,SizingPeriod:DesignDay,01/21,01/21,WinterDesignDay,1,N/A,N/A,N/A,N/A,N/A,N/A
Environment:Daylight Saving,No,SizingPeriod:DesignDay
Environment:Design Day Data,3.80,0.00,DefaultMultipliers,101301,150,2.2,0.00,No ,No 
Environment:Design_Day_Misc, 21,1229.0,0.1415,5.7310E-002,1.0,-11.15,-20.1,ASHRAEClearSky
Environment:WarmupDays,  6
 Warmup Convergence Information,THERMAL ZONE 14,SizingPeriod: SAN FRANCISCO INTL AP ANN HTG 99.6% CONDNS DB,2.3629440990E-005,1.6003647715E-005,Pass,Pass,1.7172549155E-005,1.2242520215E-005,Pass,Pass
 Warmup Convergence Information,THERMAL ZONE 2,SizingPeriod: SAN FRANCISCO INTL AP ANN HTG 99.6% CONDNS DB,3.5683168584E-003,1.5795378322E-003,Pass,Pass,4.8098351184E-003,1.4996703733E-003,Pass,Pass
 Warmup Convergence Information,THERMAL ZONE 5,SizingPeriod: SAN FRANCISCO INTL AP ANN HTG 99.6% CONDNS DB,1.0463484507E-004,2.9376492442E-005,Pass,Pass,2.0837458135E-005,1.4989819081E-005,Pass,Pass
 Warmup Convergence Information,THERMAL ZONE 15,SizingPeriod: SAN FRANCISCO INTL AP ANN HTG 99.6% CONDNS DB,2.0408682772E-004,3.3387396437E-005,Pass,Pass,2.2667070917E-005,1.6489621926E-005,Pass,Pass
 Warmup Convergence Information,THERMAL ZONE 9,SizingPeriod: SAN FRANCISCO INTL AP ANN HTG 99.6% CONDNS DB,2.6916141199E-003,1.5413703482E-003,Pass,Pass,3.8103239432E-003,1.6690865597E-003,Pass,Pass
 Warmup Convergence Information,THERMAL ZONE 11,SizingPeriod: SAN FRANCISCO INTL AP ANN HTG 99.6% CONDNS DB,3.8382565309E-003,1.1247050836E-003,Pass,Pass,5.8516005906E-003,1.4962030909E-003,Pass,Pass
 Warmup Convergence Information,THERMAL ZONE 13,SizingPeriod: SAN FRANCISCO INTL AP ANN HTG 99.6% CONDNS DB,2.4671278916E-003,1.8140110260E-003,Pass,Pass,2.5344858332E-003,2.2476073768E-003,Pass,Pass
 Warmup Convergence Information,THERMAL ZONE 12,SizingPeriod: SAN FRANCISCO INTL AP ANN HTG 99.6% CONDNS DB,6.1471983315E-005,1.1830243735E-005,Pass,Pass,1.6846720446E-005,1.2229277467E-005,Pass,Pass
 Warmup Convergence Information,THERMAL ZONE 8,SizingPeriod: SAN FRANCISCO INTL AP ANN HTG 99.6% CONDNS DB,2.3303507763E-004,3.8748588151E-005,Pass,Pass,2.4691549718E-005,1.7926851994E-005,Pass,Pass
 Warmup Convergence Information,THERMAL ZONE 10,SizingPeriod: SAN FRANCISCO INTL AP ANN HTG 99.6% CONDNS DB,3.1050366560E-005,1.9926857263E-005,Pass,Pass,1.7886082391E-005,1.2711578854E-005,Pass,Pass
 Warmup Convergence Information,THERMAL ZONE 1,SizingPeriod: SAN FRANCISCO INTL AP ANN HTG 99.6% CONDNS DB,2.6600655413E-003,1.8694588335E-003,Pass,Pass,2.8441897013E-003,2.2934188100E-003,Pass,Pass
 Warmup Convergence Information,THERMAL ZONE 7,SizingPeriod: SAN FRANCISCO INTL AP ANN HTG 99.6% CONDNS DB,9.1207805337E-005,2.5125382057E-005,Pass,Pass,2.0137618886E-005,1.4545608303E-005,Pass,Pass
 Warmup Convergence Information,THERMAL ZONE 6,SizingPeriod: SAN FRANCISCO INTL AP ANN HTG 99.6% CONDNS DB,2.5192127980E-004,9.5573469499E-004,Pass,Pass,1.6678372442E-004,7.5911121672E-004,Pass,Pass
 Warmup Convergence Information,THERMAL ZONE 4,SizingPeriod: SAN FRANCISCO INTL AP ANN HTG 99.6% CONDNS DB,2.2676720828E-005,1.5506674624E-005,Pass,Pass,1.4160571717E-005,1.0040559978E-005,Pass,Pass
 Warmup Convergence Information,THERMAL ZONE 3,SizingPeriod: SAN FRANCISCO INTL AP ANN HTG 99.6% CONDNS DB,3.9798505970E-003,2.0998308994E-003,Pass,Pass,3.8900888064E-003,2.5115780996E-003,Pass,Pass
Environment,SAN FRANCISCO INTL AP ANN CLG 2% CONDNS DB=>MWB,SizingPeriod:DesignDay,08/21,08/21,SummerDesignDay,1,N/A,N/A,N/A,N/A,N/A,N/A
Environment:Daylight Saving,No,SizingPeriod:DesignDay
Environment:Design Day Data,23.60,8.50,DefaultMultipliers,101301,310,5.9,0.00,No ,No 
Environment:Design_Day_Misc,233,1106.3,0.2000,0.1216,1.0,-3.33,12.4,ASHRAETau
Environment:WarmupDays,  7
 Warmup Convergence Information,THERMAL ZONE 14,SizingPeriod: SAN FRANCISCO INTL AP ANN CLG 2% CONDNS DB=>MWB,8.3950102916E-002,0.1565816152,Pass,Pass,0.1971686093,0.5509623646,Pass,Pass
 Warmup Convergence Information,THERMAL ZONE 2,SizingPeriod: SAN FRANCISCO INTL AP ANN CLG 2% CONDNS DB=>MWB,8.3735958206E-002,0.1344805571,Pass,Pass,0.2029317461,0.6971439477,Pass,Pass
 Warmup Convergence Information,THERMAL ZONE 5,SizingPeriod: SAN FRANCISCO INTL AP ANN CLG 2% CONDNS DB=>MWB,6.7345793331E-003,1.4217316757E-002,Pass,Pass,0.2463529175,0.7942168125,Pass,Pass
 Warmup Convergence Information,THERMAL ZONE 15,SizingPeriod: SAN FRANCISCO INTL AP ANN CLG 2% CONDNS DB=>MWB,1.3158528367E-004,1.2404903169E-004,Pass,Pass,6.1714835277E-003,4.6702593207E-003,Pass,Pass
 Warmup Convergence Information,THERMAL ZONE 9,SizingPeriod: SAN FRANCISCO INTL AP ANN CLG 2% CONDNS DB=>MWB,8.3685596618E-002,0.1401416702,Pass,Pass,0.6250103839,3.6761745973,Pass,Pass
 Warmup Convergence Information,THERMAL ZONE 11,SizingPeriod: SAN FRANCISCO INTL AP ANN CLG 2% CONDNS DB=>MWB,8.3644173715E-002,0.1203288890,Pass,Pass,0.2306787260,0.7055109023,Pass,Pass
 Warmup Convergence Information,THERMAL ZONE 13,SizingPeriod: SAN FRANCISCO INTL AP ANN CLG 2% CONDNS DB=>MWB,8.3797655493E-002,0.1381569913,Pass,Pass,0.2935880955,1.0350014014,Pass,Pass
 Warmup Convergence Information,THERMAL ZONE 12,SizingPeriod: SAN FRANCISCO INTL AP ANN CLG 2% CONDNS DB=>MWB,3.5199305304E-003,2.4183378070E-003,Pass,Pass,3.4980459954E-004,2.3832547496E-004,Pass,Pass
 Warmup Convergence Information,THERMAL ZONE 8,SizingPeriod: SAN FRANCISCO INTL AP ANN CLG 2% CONDNS DB=>MWB,1.1637546425E-004,1.0496169459E-004,Pass,Pass,0.2533073321,0.8576087462,Pass,Pass
 Warmup Convergence Information,THERMAL ZONE 10,SizingPeriod: SAN FRANCISCO INTL AP ANN CLG 2% CONDNS DB=>MWB,1.1053809522E-003,1.1421351367E-003,Pass,Pass,6.7529522727E-002,5.9976164126E-002,Pass,Pass
 Warmup Convergence Information,THERMAL ZONE 1,SizingPeriod: SAN FRANCISCO INTL AP ANN CLG 2% CONDNS DB=>MWB,8.3924095947E-002,0.1373110626,Pass,Pass,0.2696510615,0.8590692710,Pass,Pass
 Warmup Convergence Information,THERMAL ZONE 7,SizingPeriod: SAN FRANCISCO INTL AP ANN CLG 2% CONDNS DB=>MWB,4.1755782401E-003,8.7976190691E-003,Pass,Pass,0.2739505107,0.8474858608,Pass,Pass
 Warmup Convergence Information,THERMAL ZONE 6,SizingPeriod: SAN FRANCISCO INTL AP ANN CLG 2% CONDNS DB=>MWB,8.4133407997E-002,0.2035186329,Pass,Pass,0.2341870935,0.8240256258,Pass,Pass
 Warmup Convergence Information,THERMAL ZONE 4,SizingPeriod: SAN FRANCISCO INTL AP ANN CLG 2% CONDNS DB=>MWB,8.3955806134E-002,0.1806225752,Pass,Pass,0.2499131697,1.0745796623,Pass,Pass
 Warmup Convergence Information,THERMAL ZONE 3,SizingPeriod: SAN FRANCISCO INTL AP ANN CLG 2% CONDNS DB=>MWB,8.3611084346E-002,0.1159034461,Pass,Pass,0.2407728078,0.9441638916,Pass,Pass
Environment,SAN FRANCISCO INTL AP ANN HTG WIND 99.6% CONDNS WS=>MCDB,SizingPeriod:DesignDay,01/21,01/21,WinterDesignDay,1,N/A,N/A,N/A,N/A,N/A,N/A
Environment:Daylight Saving,No,SizingPeriod:DesignDay
Environment:Design Day Data,12.10,0.00,DefaultMultipliers,101301,150,12.9,0.00,No ,No 
Environment:Design_Day_Misc, 21,1229.0,0.1415,5.7310E-002,1.0,-11.15,-20.1,ASHRAEClearSky
Environment:WarmupDays,  6
 Warmup Convergence Information,THERMAL ZONE 14,SizingPeriod: SAN FRANCISCO INTL AP ANN HTG WIND 99.6% CONDNS WS=>MCDB,7.4672839559E-005,4.1676205417E-005,Pass,Pass,6.8677588440E-005,4.6591489391E-005,Pass,Pass
 Warmup Convergence Information,THERMAL ZONE 2,SizingPeriod: SAN FRANCISCO INTL AP ANN HTG WIND 99.6% CONDNS WS=>MCDB,2.2025636559E-003,1.4521589524E-003,Pass,Pass,4.6520748727E-003,1.6712575270E-003,Pass,Pass
 Warmup Convergence Information,THERMAL ZONE 5,SizingPeriod: SAN FRANCISCO INTL AP ANN HTG WIND 99.6% CONDNS WS=>MCDB,1.1350499374E-003,1.6925424501E-003,Pass,Pass,1.4726601391E-003,2.5226984766E-003,Pass,Pass
 Warmup Convergence Information,THERMAL ZONE 15,SizingPeriod: SAN FRANCISCO INTL AP ANN HTG WIND 99.6% CONDNS WS=>MCDB,8.0722381628E-006,4.2197055955E-006,Pass,Pass,7.4992564978E-005,5.1844166921E-005,Pass,Pass
 Warmup Convergence Information,THERMAL ZONE 9,SizingPeriod: SAN FRANCISCO INTL AP ANN HTG WIND 99.6% CONDNS WS=>MCDB,2.0771287213E-003,1.0626824187E-003,Pass,Pass,4.9556417155E-003,1.4638886464E-003,Pass,Pass
 Warmup Convergence Information,THERMAL ZONE 11,SizingPeriod: SAN FRANCISCO INTL AP ANN HTG WIND 99.6% CONDNS WS=>MCDB,4.4621905718E-005,2.9571748875E-005,Pass,Pass,5.8908829552E-005,4.0809200187E-005,Pass,Pass
 Warmup Convergence Information,THERMAL ZONE 13,SizingPeriod: SAN FRANCISCO INTL AP ANN HTG WIND 99.6% CONDNS WS=>MCDB,4.6380606141E-005,2.9956956171E-005,Pass,Pass,6.1640045166E-005,4.2863676844E-005,Pass,Pass
 Warmup Convergence Information,THERMAL ZONE 12,SizingPeriod: SAN FRANCISCO INTL AP ANN HTG WIND 99.6% CONDNS WS=>MCDB,2.4015636709E-005,1.6190762286E-005,Pass,Pass,7.1221748186E-005,4.9210805030E-005,Pass,Pass
 Warmup Convergence Information,THERMAL ZONE 8,SizingPeriod: SAN FRANCISCO INTL AP ANN HTG WIND 99.6% CONDNS WS=>MCDB,5.9974984935E-004,3.9493689893E-004,Pass,Pass,3.9934025111E-003,3.1263046920E-003,Pass,Pass
 Warmup Convergence Information,THERMAL ZONE 10,SizingPeriod: SAN FRANCISCO INTL AP ANN HTG WIND 99.6% CONDNS WS=>MCDB,7.4456967789E-005,4.1474251379E-005,Pass,Pass,6.8521475540E-005,4.6434534234E-005,Pass,Pass
 Warmup Convergence Information,THERMAL ZONE 1,SizingPeriod: SAN FRANCISCO INTL AP ANN HTG WIND 99.6% CONDNS WS=>MCDB,2.1514408518E-003,9.3025520040E-004,Pass,Pass,3.0728397110E-003,2.0342989250E-003,Pass,Pass
 Warmup Convergence Information,THERMAL ZONE 7,SizingPeriod: SAN FRANCISCO INTL AP ANN HTG WIND 99.6% CONDNS WS=>MCDB,5.1478581672E-005,2.9908093600E-005,Pass,Pass,6.8233846093E-005,4.6270520438E-005,Pass,Pass
 Warmup Convergence Information,THERMAL ZONE 6,SizingPeriod: SAN FRANCISCO INTL AP ANN HTG WIND 99.6% CONDNS WS=>MCDB,3.7549984333E-003,1.4634614664E-003,Pass,Pass,4.2874796656E-003,2.5098847202E-003,Pass,Pass
 Warmup Convergence Information,THERMAL ZONE 4,SizingPeriod: SAN FRANCISCO INTL AP ANN HTG WIND 99.6% CONDNS WS=>MCDB,7.1399173944E-005,4.0493330089E-005,Pass,Pass,6.4892076145E-005,4.4393173637E-005,Pass,Pass
 Warmup Convergence Information,THERMAL ZONE 3,SizingPeriod: SAN FRANCISCO INTL AP ANN HTG WIND 99.6% CONDNS WS=>MCDB,5.4542146482E-004,8.6390785724E-004,Pass,Pass,5.4460908607E-004,1.0510288902E-003,Pass,Pass
Environment,SAN FRANCISCO INTL AP ANN CLG 1% CONDNS ENTH=>MDB,SizingPeriod:DesignDay,08/21,08/21,SummerDesignDay,1,N/A,N/A,N/A,N/A,N/A,N/A
Environment:Daylight Saving,No,SizingPeriod:DesignDay
Environment:Design Day Data,23.80,8.50,DefaultMultipliers,101301,310,5.9,0.00,No ,No 
Environment:Design_Day_Misc,233,1106.3,0.2000,0.1216,1.0,-3.33,12.4,ASHRAETau
Environment:WarmupDays,  6
 Warmup Convergence Information,THERMAL ZONE 14,SizingPeriod: SAN FRANCISCO INTL AP ANN CLG 1% CONDNS ENTH=>MDB,8.4082555949E-002,0.1575270798,Pass,Pass,0.1928681710,0.5908743108,Pass,Pass
 Warmup Convergence Information,THERMAL ZONE 2,SizingPeriod: SAN FRANCISCO INTL AP ANN CLG 1% CONDNS ENTH=>MDB,8.3981949642E-002,0.1362806267,Pass,Pass,0.1691190646,0.4487272477,Pass,Pass
 Warmup Convergence Information,THERMAL ZONE 5,SizingPeriod: SAN FRANCISCO INTL AP ANN CLG 1% CONDNS ENTH=>MDB,1.1600669092E-002,2.8878306827E-002,Pass,Pass,0.2822944088,1.0233871270,Pass,Pass
 Warmup Convergence Information,THERMAL ZONE 15,SizingPeriod: SAN FRANCISCO INTL AP ANN CLG 1% CONDNS ENTH=>MDB,1.3426420905E-004,1.5842026311E-004,Pass,Pass,6.0439714163E-003,4.9882910597E-003,Pass,Pass
 Warmup Convergence Information,THERMAL ZONE 9,SizingPeriod: SAN FRANCISCO INTL AP ANN CLG 1% CONDNS ENTH=>MDB,8.3850163413E-002,0.1413371927,Pass,Pass,0.7547190191,5.4408210944,Pass,Pass
 Warmup Convergence Information,THERMAL ZONE 11,SizingPeriod: SAN FRANCISCO INTL AP ANN CLG 1% CONDNS ENTH=>MDB,8.3660147537E-002,0.1242979313,Pass,Pass,0.2070618515,0.5613696586,Pass,Pass
 Warmup Convergence Information,THERMAL ZONE 13,SizingPeriod: SAN FRANCISCO INTL AP ANN CLG 1% CONDNS ENTH=>MDB,8.4108760780E-002,0.1374351542,Pass,Pass,0.2075562102,0.4489854248,Pass,Pass
 Warmup Convergence Information,THERMAL ZONE 12,SizingPeriod: SAN FRANCISCO INTL AP ANN CLG 1% CONDNS ENTH=>MDB,9.1067263259E-003,1.3352680514E-002,Pass,Pass,4.7961015788E-003,1.6200169666E-002,Pass,Pass
 Warmup Convergence Information,THERMAL ZONE 8,SizingPeriod: SAN FRANCISCO INTL AP ANN CLG 1% CONDNS ENTH=>MDB,1.3002834280E-004,1.4749681998E-004,Pass,Pass,0.2760701313,0.8676511408,Pass,Pass
 Warmup Convergence Information,THERMAL ZONE 10,SizingPeriod: SAN FRANCISCO INTL AP ANN CLG 1% CONDNS ENTH=>MDB,1.1824261389E-003,1.2613354113E-003,Pass,Pass,7.4503331766E-002,6.8158440882E-002,Pass,Pass
 Warmup Convergence Information,THERMAL ZONE 1,SizingPeriod: SAN FRANCISCO INTL AP ANN CLG 1% CONDNS ENTH=>MDB,8.4257985092E-002,0.1363886868,Pass,Pass,0.3288510699,1.5223188974,Pass,Pass
 Warmup Convergence Information,THERMAL ZONE 7,SizingPeriod: SAN FRANCISCO INTL AP ANN CLG 1% CONDNS ENTH=>MDB,1.0011972314E-002,2.2611214827E-002,Pass,Pass,0.2052851832,0.4519273815,Pass,Pass
 Warmup Convergence Information,THERMAL ZONE 6,SizingPeriod: SAN FRANCISCO INTL AP ANN CLG 1% CONDNS ENTH=>MDB,8.4251567247E-002,0.2014230009,Pass,Pass,0.4929359555,2.2295225406,Pass,Pass
 Warmup Convergence Information,THERMAL ZONE 4,SizingPeriod: SAN FRANCISCO INTL AP ANN CLG 1% CONDNS ENTH=>MDB,8.4209258643E-002,0.1793484676,Pass,Pass,0.3077516077,1.3326516405,Pass,Pass
 Warmup Convergence Information,THERMAL ZONE 3,SizingPeriod: SAN FRANCISCO INTL AP ANN CLG 1% CONDNS ENTH=>MDB,8.3658187618E-002,0.1205545905,Pass,Pass,0.1601638177,0.3354104450,Pass,Pass
Environment,SAN FRANCISCO INTL AP ANN CLG .4% CONDNS WB=>MDB,SizingPeriod:DesignDay,08/21,08/21,SummerDesignDay,1,N/A,N/A,N/A,N/A,N/A,N/A
Environment:Daylight Saving,No,SizingPeriod:DesignDay
Environment:Design Day Data,25.70,8.50,DefaultMultipliers,101301,310,5.9,0.00,No ,No 
Environment:Design_Day_Misc,233,1106.3,0.2000,0.1216,1.0,-3.33,12.4,ASHRAETau
Environment:WarmupDays,  6
 Warmup Convergence Information,THERMAL ZONE 14,SizingPeriod: SAN FRANCISCO INTL AP ANN CLG .4% CONDNS WB=>MDB,8.3999137848E-002,0.1565267254,Pass,Pass,0.3108361783,1.4048479008,Pass,Pass
 Warmup Convergence Information,THERMAL ZONE 2,SizingPeriod: SAN FRANCISCO INTL AP ANN CLG .4% CONDNS WB=>MDB,8.3658899598E-002,0.1392573761,Pass,Pass,0.1389532071,0.2897759374,Pass,Pass
 Warmup Convergence Information,THERMAL ZONE 5,SizingPeriod: SAN FRANCISCO INTL AP ANN CLG .4% CONDNS WB=>MDB,1.7727458257E-002,3.2760427049E-002,Pass,Pass,0.3134039804,1.4938026563,Pass,Pass
 Warmup Convergence Information,THERMAL ZONE 15,SizingPeriod: SAN FRANCISCO INTL AP ANN CLG .4% CONDNS WB=>MDB,9.8303365814E-005,9.8777412954E-005,Pass,Pass,6.5569321387E-003,4.2909580824E-003,Pass,Pass
 Warmup Convergence Information,THERMAL ZONE 9,SizingPeriod: SAN FRANCISCO INTL AP ANN CLG .4% CONDNS WB=>MDB,8.3781530878E-002,0.1442258184,Pass,Pass,6.9005094655,66.0664198503,Pass,Pass
 Warmup Convergence Information,THERMAL ZONE 11,SizingPeriod: SAN FRANCISCO INTL AP ANN CLG .4% CONDNS WB=>MDB,8.3627930464E-002,0.1198585155,Pass,Pass,0.7922930619,6.3907242281,Pass,Pass
 Warmup Convergence Information,THERMAL ZONE 13,SizingPeriod: SAN FRANCISCO INTL AP ANN CLG .4% CONDNS WB=>MDB,8.3718376683E-002,0.1354676777,Pass,Pass,0.1941768251,0.4503734700,Pass,Pass
 Warmup Convergence Information,THERMAL ZONE 12,SizingPeriod: SAN FRANCISCO INTL AP ANN CLG .4% CONDNS WB=>MDB,3.5598543120E-003,2.3777412780E-003,Pass,Pass,3.6005125980E-004,2.3681399861E-004,Pass,Pass
 Warmup Convergence Information,THERMAL ZONE 8,SizingPeriod: SAN FRANCISCO INTL AP ANN CLG .4% CONDNS WB=>MDB,9.3109310315E-005,8.5104536643E-005,Pass,Pass,0.1786137861,0.3626075926,Pass,Pass
 Warmup Convergence Information,THERMAL ZONE 10,SizingPeriod: SAN FRANCISCO INTL AP ANN CLG .4% CONDNS WB=>MDB,1.0754172028E-003,1.0773590826E-003,Pass,Pass,0.1792030146,0.3192605643,Pass,Pass
 Warmup Convergence Information,THERMAL ZONE 1,SizingPeriod: SAN FRANCISCO INTL AP ANN CLG .4% CONDNS WB=>MDB,8.3793521966E-002,0.1339737209,Pass,Pass,9.4206756683E-002,9.0240502677E-002,Pass,Pass
 Warmup Convergence Information,THERMAL ZONE 7,SizingPeriod: SAN FRANCISCO INTL AP ANN CLG .4% CONDNS WB=>MDB,1.4730628662E-002,3.0137628636E-002,Pass,Pass,0.2128218956,0.5148467548,Pass,Pass
 Warmup Convergence Information,THERMAL ZONE 6,SizingPeriod: SAN FRANCISCO INTL AP ANN CLG .4% CONDNS WB=>MDB,8.4094063128E-002,0.2037386698,Pass,Pass,0.2056148240,0.5374948522,Pass,Pass
 Warmup Convergence Information,THERMAL ZONE 4,SizingPeriod: SAN FRANCISCO INTL AP ANN CLG .4% CONDNS WB=>MDB,8.3956410617E-002,0.1766066531,Pass,Pass,0.1853241250,0.5402501183,Pass,Pass
 Warmup Convergence Information,THERMAL ZONE 3,SizingPeriod: SAN FRANCISCO INTL AP ANN CLG .4% CONDNS WB=>MDB,8.3602742772E-002,0.1152314936,Pass,Pass,0.1847499318,0.4814650100,Pass,Pass
Environment,RUN PERIOD 1,WeatherFileRunPeriod,01/01,12/31,Thursday,365,Use RunPeriod Specified Day,Yes,Yes,No ,Yes,Yes
Environment:Daylight Saving,Yes,InputFile,03/08,11/01
Environment:WarmupDays,  6
 Warmup Convergence Information,THERMAL ZONE 14,RunPeriod: RUN PERIOD 1,9.3277042997E-002,0.1864271474,Pass,Pass,0.1649950977,0.5115738394,Pass,Pass
 Warmup Convergence Information,THERMAL ZONE 2,RunPeriod: RUN PERIOD 1,1.3221955999E-003,1.0801702371E-003,Pass,Pass,0.1968765794,0.5337291242,Pass,Pass
 Warmup Convergence Information,THERMAL ZONE 5,RunPeriod: RUN PERIOD 1,4.6586844540E-003,8.6318834977E-003,Pass,Pass,2.1286962436E-002,1.8786215409E-002,Pass,Pass
 Warmup Convergence Information,THERMAL ZONE 15,RunPeriod: RUN PERIOD 1,1.9615454519E-003,1.0707539847E-003,Pass,Pass,3.7966256847E-004,2.8330018440E-004,Pass,Pass
 Warmup Convergence Information,THERMAL ZONE 9,RunPeriod: RUN PERIOD 1,6.4107942418E-003,1.8575893574E-002,Pass,Pass,0.1905380922,0.6290243632,Pass,Pass
 Warmup Convergence Information,THERMAL ZONE 11,RunPeriod: RUN PERIOD 1,8.4140267143E-002,0.1311485264,Pass,Pass,0.2176887775,0.6096050052,Pass,Pass
 Warmup Convergence Information,THERMAL ZONE 13,RunPeriod: RUN PERIOD 1,5.0176915145E-003,1.7279429758E-002,Pass,Pass,0.2103147259,0.6054881313,Pass,Pass
 Warmup Convergence Information,THERMAL ZONE 12,RunPeriod: RUN PERIOD 1,2.9165266126E-003,2.2853449480E-003,Pass,Pass,4.1188488919E-004,3.3489167615E-004,Pass,Pass
 Warmup Convergence Information,THERMAL ZONE 8,RunPeriod: RUN PERIOD 1,3.7454422179E-004,3.0126972145E-004,Pass,Pass,1.1073874271E-002,7.6456304196E-003,Pass,Pass
 Warmup Convergence Information,THERMAL ZONE 10,RunPeriod: RUN PERIOD 1,1.6460203660E-002,2.3338670281E-002,Pass,Pass,1.3024459884E-002,1.6959861406E-002,Pass,Pass
 Warmup Convergence Information,THERMAL ZONE 1,RunPeriod: RUN PERIOD 1,1.5660345188E-003,1.1867198101E-003,Pass,Pass,0.2448463541,0.8153235798,Pass,Pass
 Warmup Convergence Information,THERMAL ZONE 7,RunPeriod: RUN PERIOD 1,7.9522696213E-003,1.5263332801E-002,Pass,Pass,2.2454001991E-002,2.2756659886E-002,Pass,Pass
 Warmup Convergence Information,THERMAL ZONE 6,RunPeriod: RUN PERIOD 1,8.5037778674E-003,2.7601844288E-002,Pass,Pass,0.2186902314,1.0644136795,Pass,Pass
 Warmup Convergence Information,THERMAL ZONE 4,RunPeriod: RUN PERIOD 1,1.3386790541E-002,2.9508608998E-002,Pass,Pass,0.2149018510,0.9752896945,Pass,Pass
 Warmup Convergence Information,THERMAL ZONE 3,RunPeriod: RUN PERIOD 1,8.4075651072E-002,0.1329623816,Pass,Pass,0.8887363830,6.9918707605,Pass,Pass
! <Program Control Information:Threads/Parallel Sims>, Threading Supported,Maximum Number of Threads, Env Set Threads (OMP_NUM_THREADS), EP Env Set Threads (EP_OMP_NUM_THREADS), IDF Set Threads, Number of Threads Used (Interior Radiant Exchange), Number Nominal Surfaces, Number Parallel Sims
Program Control:Threads/Parallel Sims, Yes,1, Not Set, Not Set, 1, 1, 102, N/A
End of Data
