Program Version,EnergyPlus-Linux-OMP-32 7.2.0.006, YMD=2013.04.22 02:11
! <Version>, Version ID
 Version, 7.2
! <Timesteps per Hour>, #TimeSteps, Minutes per TimeStep {minutes}
 Timesteps per Hour,  4, 15
! <System Convergence Limits>, Minimum System TimeStep {minutes}, Max HVAC Iterations,  Minimum Plant Iterations, Maximum Plant Iterations
 System Convergence Limits, 1, 20, 2, 8
! <Simulation Control>, Do Zone Sizing, Do System Sizing, Do Plant Sizing, Do Design Days, Do Weather Simulation
 Simulation Control, Yes, Yes, Yes, Yes, Yes
! <Output Reporting Tolerances>, Tolerance for Time Heating Setpoint Not Met, Tolerance for Time Cooling Setpoint Not Met
 Output Reporting Tolerances, 0.200, 0.200, 
! <Site:GroundTemperature:BuildingSurface>, Months From Jan to Dec {Deg C}
 Site:GroundTemperature:BuildingSurface,  18.00,  18.00,  18.00,  18.00,  18.00,  18.00,  18.00,  18.00,  18.00,  18.00,  18.00,  18.00
! <Site:GroundTemperature:FCfactorMethod>, Months From Jan to Dec {Deg C}
 Site:GroundTemperature:FCfactorMethod,  10.86,  10.57,  11.08,  11.88,  13.97,  15.58,  16.67,  17.00,  16.44,  15.19,  13.51,  11.96
! <Site:GroundTemperature:Shallow>, Months From Jan to Dec {Deg C}
 Site:GroundTemperature:Shallow,  13.00,  13.00,  13.00,  13.00,  13.00,  13.00,  13.00,  13.00,  13.00,  13.00,  13.00,  13.00
! <Site:GroundTemperature:Deep>, Months From Jan to Dec {Deg C}
 Site:GroundTemperature:Deep,  16.00,  16.00,  16.00,  16.00,  16.00,  16.00,  16.00,  16.00,  16.00,  16.00,  16.00,  16.00
! <Site:GroundReflectance>, Months From Jan to Dec {dimensionless}
 Site:GroundReflectance,  0.20,  0.20,  0.20,  0.20,  0.20,  0.20,  0.20,  0.20,  0.20,  0.20,  0.20,  0.20
! <Site:GroundReflectance:SnowModifier>, Normal, Daylighting {dimensionless}
 Site:GroundReflectance:SnowModifier,   1.000,   1.000
! <Site:GroundReflectance:Snow>, Months From Jan to Dec {dimensionless}
 Site:GroundReflectance:Snow,  0.20,  0.20,  0.20,  0.20,  0.20,  0.20,  0.20,  0.20,  0.20,  0.20,  0.20,  0.20
! <Site:GroundReflectance:Snow:Daylighting>, Months From Jan to Dec {dimensionless}
 Site:GroundReflectance:Snow:Daylighting,  0.20,  0.20,  0.20,  0.20,  0.20,  0.20,  0.20,  0.20,  0.20,  0.20,  0.20,  0.20
! <Environment:Weather Station>,Wind Sensor Height Above Ground {m},Wind Speed Profile Exponent {},Wind Speed Profile Boundary Layer Thickness {m},Air Temperature Sensor Height Above Ground {m},Wind Speed Modifier Coefficient [Internal],Temperature Modifier Coefficient [Internal]
Environment:Weather Station,10.000,0.140,270.000,1.500,1.586,9.750E-003
! <Site:Location>, Location Name, Latitude {N+/S- Deg}, Longitude {E+/W- Deg},  Time Zone Number {GMT+/-}, Elevation {m},  Standard Pressure at Elevation {Pa}, Standard RhoAir at Elevation
Site:Location,San Francisco Intl Ap CA USA TMY3 WMO#=724940,37.62,-122.40,-8.00,2.00,101301,1.2040
! <Building Information>, Building Name,North Axis {deg},Terrain,  Loads Convergence Tolerance Value,Temperature Convergence Tolerance Value,  Solar Distribution,Maximum Number of Warmup Days,Minimum Number of Warmup Days
 Building Information,Building 1,0.000,Suburbs,4.00000E-002,0.40000,FullExterior,25,6
! <Inside Convection Algorithm>, Algorithm {Simple | TARP | CeilingDiffuser | AdaptiveConvectionAlgorithm}
Inside Convection Algorithm,TARP
! <Outside Convection Algorithm>, Algorithm {SimpleCombined | TARP | MoWitt | DOE-2 | AdaptiveConvectionAlgorithm}
Outside Convection Algorithm,DOE-2
! <Sky Radiance Distribution>, Value {Anisotropic}
Sky Radiance Distribution,Anisotropic
! <Zone Air Solution Algorithm>, Value {ThirdOrderBackwardDifference | AnalyticalSolution | EulerMethod}
 Zone Air Solution Algorithm, ThirdOrderBackwardDifference
! <Zone Air Contaminant Balance Simulation>, Simulation {Yes/No}, Carbon Dioxide Concentration
 Zone Air Carbon Dioxide Balance Simulation, No,N/A
! <Zone Air Contaminant Balance Simulation>, Simulation {Yes/No}, Generic Contaminant Concentration
 Zone Air Generic Contaminant Balance Simulation, No,N/A
! <Environment:Site Atmospheric Variation>,Wind Speed Profile Exponent {},Wind Speed Profile Boundary Layer Thickness {m},Air Temperature Gradient Coefficient {K/m}
Environment:Site Atmospheric Variation,0.220,370.000,6.500000E-003
! <SurfaceGeometry>,Starting Corner,Vertex Input Direction,Coordinate System,Daylight Reference Point Coordinate System,Rectangular (Simple) Surface Coordinate System
 Surface Geometry,UpperLeftCorner,Counterclockwise,RelativeCoordinateSystem,RelativeCoordinateSystem,RelativeToZoneOrigin
! <Surface Heat Transfer Algorithm>, Value {CTF - ConductionTransferFunction | EMPD - MoisturePenetrationDepthConductionTransferFunction | CondFD - ConductionFiniteDifference | HAMT - CombinedHeatAndMoistureFiniteElement} - Description,Inside Surface Max Temperature Limit{C}, Surface Convection Coefficient Lower Limit {W/m2-K}, Surface Convection Coefficient Upper Limit {W/m2-K}
Surface Heat Transfer Algorithm, CTF - ConductionTransferFunction,200,0.10,1000.0
! <Shading Summary>, Number of Fixed Detached Shades, Number of Building Detached Shades, Number of Attached Shades
 Shading Summary,0,0,0
! <Zone Summary>, Number of Zones, Number of Zone Surfaces, Number of SubSurfaces
 Zone Summary,25,170,20
! <Zone Information>,Zone Name,North Axis {deg},Origin X-Coordinate {m},Origin Y-Coordinate {m},Origin Z-Coordinate {m},Centroid X-Coordinate {m},Centroid Y-Coordinate {m},Centroid Z-Coordinate {m},Type,Zone Multiplier,Zone List Multiplier,Minimum X {m},Maximum X {m},Minimum Y {m},Maximum Y {m},Minimum Z {m},Maximum Z {m},Ceiling Height {m},Volume {m3},Zone Inside Convection Algorithm {Simple-Detailed-CeilingDiffuser-TrombeWall},Zone Outside Convection Algorithm {Simple-Detailed-Tarp-MoWitt-DOE-2-BLAST}, Floor Area {m2},Exterior Gross Wall Area {m2},Exterior Net Wall Area {m2},Exterior Window Area {m2}, Number of Surfaces, Number of SubSurfaces, Number of Shading SubSurfaces,  Part of Total Building Area
 Zone Information, THERMAL ZONE 12,0.0,0.00,0.00,16.00,1.39,15.00,18.00,1,1,1,0.00,3.00,0.00,30.00,16.00,20.00,4.00,324.00,TARP,DOE-2,81.00,120.00,75.60,44.40,6,1,0,Yes
 Zone Information, THERMAL ZONE 3,0.0,27.00,3.00,0.00,28.61,15.00,2.00,1,1,1,27.00,30.00,0.00,30.00,0.00,4.00,4.00,324.00,TARP,DOE-2,81.00,120.00,75.60,44.40,6,1,0,Yes
 Zone Information, THERMAL ZONE 8,0.0,0.00,0.00,4.00,1.39,15.00,6.00,1,1,1,0.00,3.00,0.00,30.00,4.00,8.00,4.00,324.00,TARP,DOE-2,81.00,120.00,75.60,44.40,6,1,0,Yes
 Zone Information, THERMAL ZONE 22,0.0,0.00,0.00,8.00,1.39,15.00,10.00,1,1,1,0.00,3.00,0.00,30.00,8.00,12.00,4.00,324.00,TARP,DOE-2,81.00,120.00,75.60,44.40,6,1,0,Yes
 Zone Information, THERMAL ZONE 4,0.0,3.00,3.00,12.00,15.00,15.00,14.00,1,1,1,3.00,27.00,3.00,27.00,12.00,16.00,4.00,2304.00,TARP,DOE-2,576.00,0.00,0.00,0.00,6,0,0,Yes
 Zone Information, THERMAL ZONE 16,0.0,27.00,3.00,8.00,28.61,15.00,10.00,1,1,1,27.00,30.00,0.00,30.00,8.00,12.00,4.00,324.00,TARP,DOE-2,81.00,120.00,75.60,44.40,6,1,0,Yes
 Zone Information, THERMAL ZONE 13,0.0,3.00,27.00,12.00,15.00,28.61,14.00,1,1,1,0.00,30.00,27.00,30.00,12.00,16.00,4.00,324.00,TARP,DOE-2,81.00,120.00,75.60,44.40,6,1,0,Yes
 Zone Information, THERMAL ZONE 10,0.0,3.00,27.00,16.00,15.00,28.61,18.00,1,1,1,0.00,30.00,27.00,30.00,16.00,20.00,4.00,324.00,TARP,DOE-2,81.00,120.00,75.60,44.40,6,1,0,Yes
 Zone Information, THERMAL ZONE 6,0.0,27.00,3.00,4.00,28.61,15.00,6.00,1,1,1,27.00,30.00,0.00,30.00,4.00,8.00,4.00,324.00,TARP,DOE-2,81.00,120.00,75.60,44.40,6,1,0,Yes
 Zone Information, THERMAL ZONE 15,0.0,3.00,3.00,16.00,15.00,15.00,18.00,1,1,1,3.00,27.00,3.00,27.00,16.00,20.00,4.00,2304.00,TARP,DOE-2,576.00,0.00,0.00,0.00,6,0,0,Yes
 Zone Information, THERMAL ZONE 14,0.0,0.00,0.00,12.00,15.00,1.39,14.00,1,1,1,0.00,30.00,0.00,3.00,12.00,16.00,4.00,324.00,TARP,DOE-2,81.00,120.00,75.60,44.40,6,1,0,Yes
 Zone Information, THERMAL ZONE 18,0.0,27.00,3.00,12.00,28.61,15.00,14.00,1,1,1,27.00,30.00,0.00,30.00,12.00,16.00,4.00,324.00,TARP,DOE-2,81.00,120.00,75.60,44.40,6,1,0,Yes
 Zone Information, THERMAL ZONE 24,0.0,27.00,3.00,16.00,28.61,15.00,18.00,1,1,1,27.00,30.00,0.00,30.00,16.00,20.00,4.00,324.00,TARP,DOE-2,81.00,120.00,75.60,44.40,6,1,0,Yes
 Zone Information, THERMAL ZONE 2,0.0,0.00,0.00,0.00,1.39,15.00,2.00,1,1,1,0.00,3.00,0.00,30.00,0.00,4.00,4.00,324.00,TARP,DOE-2,81.00,120.00,75.60,44.40,6,1,0,Yes
 Zone Information, THERMAL ZONE 7,0.0,3.00,27.00,0.00,15.00,28.61,2.00,1,1,1,0.00,30.00,27.00,30.00,0.00,4.00,4.00,324.00,TARP,DOE-2,81.00,120.00,75.60,44.40,6,1,0,Yes
 Zone Information, THERMAL ZONE 20,0.0,0.00,0.00,4.00,15.00,1.39,6.00,1,1,1,0.00,30.00,0.00,3.00,4.00,8.00,4.00,324.00,TARP,DOE-2,81.00,120.00,75.60,44.40,6,1,0,Yes
 Zone Information, THERMAL ZONE 5,0.0,3.00,3.00,8.00,15.00,15.00,10.00,1,1,1,3.00,27.00,3.00,27.00,8.00,12.00,4.00,2304.00,TARP,DOE-2,576.00,0.00,0.00,0.00,6,0,0,Yes
 Zone Information, THERMAL ZONE 9,0.0,3.00,3.00,4.00,15.00,15.00,6.00,1,1,1,3.00,27.00,3.00,27.00,4.00,8.00,4.00,2304.00,TARP,DOE-2,576.00,0.00,0.00,0.00,6,0,0,Yes
 Zone Information, THERMAL ZONE 23,0.0,3.00,27.00,4.00,15.00,28.61,6.00,1,1,1,0.00,30.00,27.00,30.00,4.00,8.00,4.00,324.00,TARP,DOE-2,81.00,120.00,75.60,44.40,6,1,0,Yes
 Zone Information, THERMAL ZONE 11,0.0,0.00,0.00,8.00,15.00,1.39,10.00,1,1,1,0.00,30.00,0.00,3.00,8.00,12.00,4.00,324.00,TARP,DOE-2,81.00,120.00,75.60,44.40,6,1,0,Yes
 Zone Information, THERMAL ZONE 21,0.0,0.00,0.00,16.00,15.00,1.39,18.00,1,1,1,0.00,30.00,0.00,3.00,16.00,20.00,4.00,324.00,TARP,DOE-2,81.00,120.00,75.60,44.40,6,1,0,Yes
 Zone Information, THERMAL ZONE 1,0.0,3.00,3.00,0.00,15.00,15.00,2.00,1,1,1,3.00,27.00,3.00,27.00,0.00,4.00,4.00,2304.00,TARP,DOE-2,576.00,0.00,0.00,0.00,6,0,0,Yes
 Zone Information, THERMAL ZONE 25,0.0,0.00,0.00,0.00,15.00,1.39,2.00,1,1,1,0.00,30.00,0.00,3.00,0.00,4.00,4.00,324.00,TARP,DOE-2,81.00,120.00,75.60,44.40,6,1,0,Yes
 Zone Information, THERMAL ZONE 19,0.0,0.00,0.00,12.00,1.39,15.00,14.00,1,1,1,0.00,3.00,0.00,30.00,12.00,16.00,4.00,324.00,TARP,DOE-2,81.00,120.00,75.60,44.40,6,1,0,Yes
 Zone Information, THERMAL ZONE 17,0.0,3.00,27.00,8.00,15.00,28.61,10.00,1,1,1,0.00,30.00,27.00,30.00,8.00,12.00,4.00,324.00,TARP,DOE-2,81.00,120.00,75.60,44.40,6,1,0,Yes
! <Zone Internal Gains/Equipment Information - Nominal>,Zone Name, Floor Area {m2},# Occupants,Area per Occupant {m2/person},Occupant per Area {person/m2},Interior Lighting {W/m2},Electric Load {W/m2},Gas Load {W/m2},Other Load {W/m2},Hot Water Eq {W/m2},Steam Equipment {W/m2},Sum Loads per Area {W/m2},Outdoor Controlled Baseboard Heat
 Zone Internal Gains, THERMAL ZONE 12,81.00,0.0,N/A,0.000,0.000,0.000,0.000,0.000,0.000,0.000,0.000,No
 Zone Internal Gains, THERMAL ZONE 3,81.00,0.0,N/A,0.000,0.000,0.000,0.000,0.000,0.000,0.000,0.000,No
 Zone Internal Gains, THERMAL ZONE 8,81.00,0.0,N/A,0.000,0.000,0.000,0.000,0.000,0.000,0.000,0.000,No
 Zone Internal Gains, THERMAL ZONE 22,81.00,0.0,N/A,0.000,0.000,0.000,0.000,0.000,0.000,0.000,0.000,No
 Zone Internal Gains, THERMAL ZONE 4,576.00,0.0,N/A,0.000,0.000,0.000,0.000,0.000,0.000,0.000,0.000,No
 Zone Internal Gains, THERMAL ZONE 16,81.00,0.0,N/A,0.000,0.000,0.000,0.000,0.000,0.000,0.000,0.000,No
 Zone Internal Gains, THERMAL ZONE 13,81.00,0.0,N/A,0.000,0.000,0.000,0.000,0.000,0.000,0.000,0.000,No
 Zone Internal Gains, THERMAL ZONE 10,81.00,0.0,N/A,0.000,0.000,0.000,0.000,0.000,0.000,0.000,0.000,No
 Zone Internal Gains, THERMAL ZONE 6,81.00,0.0,N/A,0.000,0.000,0.000,0.000,0.000,0.000,0.000,0.000,No
 Zone Internal Gains, THERMAL ZONE 15,576.00,0.0,N/A,0.000,0.000,0.000,0.000,0.000,0.000,0.000,0.000,No
 Zone Internal Gains, THERMAL ZONE 14,81.00,0.0,N/A,0.000,0.000,0.000,0.000,0.000,0.000,0.000,0.000,No
 Zone Internal Gains, THERMAL ZONE 18,81.00,0.0,N/A,0.000,0.000,0.000,0.000,0.000,0.000,0.000,0.000,No
 Zone Internal Gains, THERMAL ZONE 24,81.00,0.0,N/A,0.000,0.000,0.000,0.000,0.000,0.000,0.000,0.000,No
 Zone Internal Gains, THERMAL ZONE 2,81.00,0.0,N/A,0.000,0.000,0.000,0.000,0.000,0.000,0.000,0.000,No
 Zone Internal Gains, THERMAL ZONE 7,81.00,0.0,N/A,0.000,0.000,0.000,0.000,0.000,0.000,0.000,0.000,No
 Zone Internal Gains, THERMAL ZONE 20,81.00,0.0,N/A,0.000,0.000,0.000,0.000,0.000,0.000,0.000,0.000,No
 Zone Internal Gains, THERMAL ZONE 5,576.00,0.0,N/A,0.000,0.000,0.000,0.000,0.000,0.000,0.000,0.000,No
 Zone Internal Gains, THERMAL ZONE 9,576.00,0.0,N/A,0.000,0.000,0.000,0.000,0.000,0.000,0.000,0.000,No
 Zone Internal Gains, THERMAL ZONE 23,81.00,0.0,N/A,0.000,0.000,0.000,0.000,0.000,0.000,0.000,0.000,No
 Zone Internal Gains, THERMAL ZONE 11,81.00,0.0,N/A,0.000,0.000,0.000,0.000,0.000,0.000,0.000,0.000,No
 Zone Internal Gains, THERMAL ZONE 21,81.00,0.0,N/A,0.000,0.000,0.000,0.000,0.000,0.000,0.000,0.000,No
 Zone Internal Gains, THERMAL ZONE 1,576.00,0.0,N/A,0.000,0.000,0.000,0.000,0.000,0.000,0.000,0.000,No
 Zone Internal Gains, THERMAL ZONE 25,81.00,0.0,N/A,0.000,0.000,0.000,0.000,0.000,0.000,0.000,0.000,No
 Zone Internal Gains, THERMAL ZONE 19,81.00,0.0,N/A,0.000,0.000,0.000,0.000,0.000,0.000,0.000,0.000,No
 Zone Internal Gains, THERMAL ZONE 17,81.00,0.0,N/A,0.000,0.000,0.000,0.000,0.000,0.000,0.000,0.000,No
! <Shadowing/Sun Position Calculations> [Annual Simulations], Value {days}, Allowable Number Figures in Shadow Overlap {}, Polygon Clipping Algorithm, Sky Diffuse Modeling Algorithm
Shadowing/Sun Position Calculations,20,15000,SutherlandHodgman,SimpleSkyDiffuseModeling
! <RoomAir Model>, Zone Name, Mixing/Mundt/UCSDDV/UCSDCV/UCSDUFI/UCSDUFE/User Defined
RoomAir Model,THERMAL ZONE 12,Mixing/Well-Stirred
RoomAir Model,THERMAL ZONE 3,Mixing/Well-Stirred
RoomAir Model,THERMAL ZONE 8,Mixing/Well-Stirred
RoomAir Model,THERMAL ZONE 22,Mixing/Well-Stirred
RoomAir Model,THERMAL ZONE 4,Mixing/Well-Stirred
RoomAir Model,THERMAL ZONE 16,Mixing/Well-Stirred
RoomAir Model,THERMAL ZONE 13,Mixing/Well-Stirred
RoomAir Model,THERMAL ZONE 10,Mixing/Well-Stirred
RoomAir Model,THERMAL ZONE 6,Mixing/Well-Stirred
RoomAir Model,THERMAL ZONE 15,Mixing/Well-Stirred
RoomAir Model,THERMAL ZONE 14,Mixing/Well-Stirred
RoomAir Model,THERMAL ZONE 18,Mixing/Well-Stirred
RoomAir Model,THERMAL ZONE 24,Mixing/Well-Stirred
RoomAir Model,THERMAL ZONE 2,Mixing/Well-Stirred
RoomAir Model,THERMAL ZONE 7,Mixing/Well-Stirred
RoomAir Model,THERMAL ZONE 20,Mixing/Well-Stirred
RoomAir Model,THERMAL ZONE 5,Mixing/Well-Stirred
RoomAir Model,THERMAL ZONE 9,Mixing/Well-Stirred
RoomAir Model,THERMAL ZONE 23,Mixing/Well-Stirred
RoomAir Model,THERMAL ZONE 11,Mixing/Well-Stirred
RoomAir Model,THERMAL ZONE 21,Mixing/Well-Stirred
RoomAir Model,THERMAL ZONE 1,Mixing/Well-Stirred
RoomAir Model,THERMAL ZONE 25,Mixing/Well-Stirred
RoomAir Model,THERMAL ZONE 19,Mixing/Well-Stirred
RoomAir Model,THERMAL ZONE 17,Mixing/Well-Stirred
! <AirflowNetwork Model:Control>, No Multizone or Distribution/Multizone with Distribution/Multizone without Distribution/Multizone with Distribution only during Fan Operation
AirflowNetwork Model:Control,NoMultizoneOrDistribution
! <Zone Volume Capacitance Multiplier>, Sensible Heat Capacity Multiplier, Moisture Capacity Multiplier, Carbon Dioxide Capacity Multiplier, Generic Contaminant Capacity Multiplier
Zone Volume Capacitance Multiplier,   1.000 ,   1.000,   1.000,   1.000
! <Load Timesteps in Zone Design Calculation Averaging Window>, Value
 Load Timesteps in Zone Design Calculation Averaging Window,    4
! <Heating Sizing Factor Information>, Sizing Factor ID, Value
 Heating Sizing Factor Information, Global,   1.2500    
 Heating Sizing Factor Information, Zone THERMAL ZONE 12,   1.2500    
 Heating Sizing Factor Information, Zone THERMAL ZONE 3,   1.2500    
 Heating Sizing Factor Information, Zone THERMAL ZONE 8,   1.2500    
 Heating Sizing Factor Information, Zone THERMAL ZONE 22,   1.2500    
 Heating Sizing Factor Information, Zone THERMAL ZONE 4,   1.2500    
 Heating Sizing Factor Information, Zone THERMAL ZONE 16,   1.2500    
 Heating Sizing Factor Information, Zone THERMAL ZONE 13,   1.2500    
 Heating Sizing Factor Information, Zone THERMAL ZONE 10,   1.2500    
 Heating Sizing Factor Information, Zone THERMAL ZONE 6,   1.2500    
 Heating Sizing Factor Information, Zone THERMAL ZONE 15,   1.2500    
 Heating Sizing Factor Information, Zone THERMAL ZONE 14,   1.2500    
 Heating Sizing Factor Information, Zone THERMAL ZONE 18,   1.2500    
 Heating Sizing Factor Information, Zone THERMAL ZONE 24,   1.2500    
 Heating Sizing Factor Information, Zone THERMAL ZONE 2,   1.2500    
 Heating Sizing Factor Information, Zone THERMAL ZONE 7,   1.2500    
 Heating Sizing Factor Information, Zone THERMAL ZONE 20,   1.2500    
 Heating Sizing Factor Information, Zone THERMAL ZONE 5,   1.2500    
 Heating Sizing Factor Information, Zone THERMAL ZONE 9,   1.2500    
 Heating Sizing Factor Information, Zone THERMAL ZONE 23,   1.2500    
 Heating Sizing Factor Information, Zone THERMAL ZONE 11,   1.2500    
 Heating Sizing Factor Information, Zone THERMAL ZONE 21,   1.2500    
 Heating Sizing Factor Information, Zone THERMAL ZONE 1,   1.2500    
 Heating Sizing Factor Information, Zone THERMAL ZONE 25,   1.2500    
 Heating Sizing Factor Information, Zone THERMAL ZONE 19,   1.2500    
 Heating Sizing Factor Information, Zone THERMAL ZONE 17,   1.2500    
! <Cooling Sizing Factor Information>, Sizing Factor ID, Value
 Cooling Sizing Factor Information, Global,   1.1500    
 Cooling Sizing Factor Information, Zone THERMAL ZONE 12,   1.1500    
 Cooling Sizing Factor Information, Zone THERMAL ZONE 3,   1.1500    
 Cooling Sizing Factor Information, Zone THERMAL ZONE 8,   1.1500    
 Cooling Sizing Factor Information, Zone THERMAL ZONE 22,   1.1500    
 Cooling Sizing Factor Information, Zone THERMAL ZONE 4,   1.1500    
 Cooling Sizing Factor Information, Zone THERMAL ZONE 16,   1.1500    
 Cooling Sizing Factor Information, Zone THERMAL ZONE 13,   1.1500    
 Cooling Sizing Factor Information, Zone THERMAL ZONE 10,   1.1500    
 Cooling Sizing Factor Information, Zone THERMAL ZONE 6,   1.1500    
 Cooling Sizing Factor Information, Zone THERMAL ZONE 15,   1.1500    
 Cooling Sizing Factor Information, Zone THERMAL ZONE 14,   1.1500    
 Cooling Sizing Factor Information, Zone THERMAL ZONE 18,   1.1500    
 Cooling Sizing Factor Information, Zone THERMAL ZONE 24,   1.1500    
 Cooling Sizing Factor Information, Zone THERMAL ZONE 2,   1.1500    
 Cooling Sizing Factor Information, Zone THERMAL ZONE 7,   1.1500    
 Cooling Sizing Factor Information, Zone THERMAL ZONE 20,   1.1500    
 Cooling Sizing Factor Information, Zone THERMAL ZONE 5,   1.1500    
 Cooling Sizing Factor Information, Zone THERMAL ZONE 9,   1.1500    
 Cooling Sizing Factor Information, Zone THERMAL ZONE 23,   1.1500    
 Cooling Sizing Factor Information, Zone THERMAL ZONE 11,   1.1500    
 Cooling Sizing Factor Information, Zone THERMAL ZONE 21,   1.1500    
 Cooling Sizing Factor Information, Zone THERMAL ZONE 1,   1.1500    
 Cooling Sizing Factor Information, Zone THERMAL ZONE 25,   1.1500    
 Cooling Sizing Factor Information, Zone THERMAL ZONE 19,   1.1500    
 Cooling Sizing Factor Information, Zone THERMAL ZONE 17,   1.1500    
! <Zone Sizing Information>, Zone Name, Load Type, Calc Des Load {W}, User Des Load {W}, Calc Des Air Flow Rate {m3/s}, User Des Air Flow Rate {m3/s}, Design Day Name, Date/Time of Peak, Temperature at Peak {C}, Humidity Ratio at Peak {kgWater/kgDryAir}, Floor Area {m2}, # Occupants, Calc Outdoor Air Flow Rate {m3/s}
 Zone Sizing Information, THERMAL ZONE 12, Cooling, 6676.43900, 7677.90485, 0.38807, 0.44628, SAN FRANCISCO INTL AP ANN CLG .4% CONDNS DB=>MWB, 8/21 17:30:00, 26.68500, 7.71373E-003, 81.00000, 0.00000, 0.00000
 Zone Sizing Information, THERMAL ZONE 12, Heating, 2579.12850, 3223.91062, 0.13129, 0.16412, SAN FRANCISCO INTL AP ANN HTG 99.6% CONDNS DB, 1/21 24:00:00, 3.80000, 4.96421E-003, 81.00000, 0.00000, 0.00000
 Zone Sizing Information, THERMAL ZONE 3, Cooling, 3409.30976, 3920.70622, 0.19817, 0.22789, SAN FRANCISCO INTL AP ANN CLG .4% CONDNS DB=>MWB, 8/21 10:00:00, 25.07000, 7.71372E-003, 81.00000, 0.00000, 0.00000
 Zone Sizing Information, THERMAL ZONE 3, Heating, 2778.27198, 3472.83997, 0.14143, 0.17679, SAN FRANCISCO INTL AP ANN HTG 99.6% CONDNS DB, 1/21 24:00:00, 3.80000, 4.96421E-003, 81.00000, 0.00000, 0.00000
 Zone Sizing Information, THERMAL ZONE 8, Cooling, 6319.89609, 7267.88050, 0.36734, 0.42245, SAN FRANCISCO INTL AP ANN CLG .4% CONDNS DB=>MWB, 8/21 17:45:00, 26.47250, 7.71372E-003, 81.00000, 0.00000, 0.00000
 Zone Sizing Information, THERMAL ZONE 8, Heating, 2250.52938, 2813.16172, 0.11457, 0.14321, SAN FRANCISCO INTL AP ANN HTG 99.6% CONDNS DB, 1/21 24:00:00, 3.80000, 4.96421E-003, 81.00000, 0.00000, 0.00000
 Zone Sizing Information, THERMAL ZONE 22, Cooling, 6736.47521, 7746.94649, 0.39156, 0.45029, SAN FRANCISCO INTL AP ANN CLG .4% CONDNS DB=>MWB, 8/21 17:30:00, 26.68500, 7.71373E-003, 81.00000, 0.00000, 0.00000
 Zone Sizing Information, THERMAL ZONE 22, Heating, 2214.93000, 2768.66250, 0.11275, 0.14094, SAN FRANCISCO INTL AP ANN HTG 99.6% CONDNS DB, 1/21 24:00:00, 3.80000, 4.96421E-003, 81.00000, 0.00000, 0.00000
 Zone Sizing Information, THERMAL ZONE 4, Cooling, 1186.83522, 1364.86051, 6.89850E-002, 7.93327E-002, SAN FRANCISCO INTL AP ANN CLG .4% CONDNS DB=>MWB, 8/21 17:30:00, 26.68500, 7.71373E-003, 576.00000, 0.00000, 0.00000
 Zone Sizing Information, THERMAL ZONE 4, Heating, 1442.50203, 1803.12753, 7.34318E-002, 9.17898E-002, SAN FRANCISCO INTL AP ANN HTG 99.6% CONDNS DB, 1/21 24:00:00, 3.80000, 4.96421E-003, 576.00000, 0.00000, 0.00000
 Zone Sizing Information, THERMAL ZONE 16, Cooling, 5555.73994, 6389.10093, 0.32293, 0.37137, SAN FRANCISCO INTL AP ANN CLG .4% CONDNS DB=>MWB, 8/21 10:45:00, 26.02625, 7.71373E-003, 81.00000, 0.00000, 0.00000
 Zone Sizing Information, THERMAL ZONE 16, Heating, 2217.56570, 2771.95712, 0.11289, 0.14111, SAN FRANCISCO INTL AP ANN HTG 99.6% CONDNS DB, 1/21 24:00:00, 3.80000, 4.96421E-003, 81.00000, 0.00000, 0.00000
 Zone Sizing Information, THERMAL ZONE 13, Cooling, 938.26213, 1079.00145, 5.45366E-002, 6.27171E-002, SAN FRANCISCO INTL AP ANN CLG .4% CONDNS DB=>MWB, 8/21 15:30:00, 28.04500, 7.71373E-003, 81.00000, 0.00000, 0.00000
 Zone Sizing Information, THERMAL ZONE 13, Heating, 2242.45617, 2803.07021, 0.11415, 0.14269, SAN FRANCISCO INTL AP ANN HTG 99.6% CONDNS DB, 1/21 24:00:00, 3.80000, 4.96421E-003, 81.00000, 0.00000, 0.00000
 Zone Sizing Information, THERMAL ZONE 10, Cooling, 939.86713, 1080.84720, 5.46299E-002, 6.28244E-002, SAN FRANCISCO INTL AP ANN CLG .4% CONDNS DB=>MWB, 8/21 15:45:00, 27.91750, 7.71373E-003, 81.00000, 0.00000, 0.00000
 Zone Sizing Information, THERMAL ZONE 10, Heating, 2579.12850, 3223.91062, 0.13129, 0.16412, SAN FRANCISCO INTL AP ANN HTG 99.6% CONDNS DB, 1/21 24:00:00, 3.80000, 4.96421E-003, 81.00000, 0.00000, 0.00000
 Zone Sizing Information, THERMAL ZONE 6, Cooling, 5068.96967, 5829.31512, 0.29463, 0.33883, SAN FRANCISCO INTL AP ANN CLG .4% CONDNS DB=>MWB, 8/21 10:45:00, 26.02625, 7.71373E-003, 81.00000, 0.00000, 0.00000
 Zone Sizing Information, THERMAL ZONE 6, Heating, 2250.85420, 2813.56774, 0.11458, 0.14323, SAN FRANCISCO INTL AP ANN HTG 99.6% CONDNS DB, 1/21 24:00:00, 3.80000, 4.96421E-003, 81.00000, 0.00000, 0.00000
 Zone Sizing Information, THERMAL ZONE 15, Cooling, 1414.90319, 1627.13867, 8.22415E-002, 9.45777E-002, SAN FRANCISCO INTL AP ANN CLG .4% CONDNS DB=>MWB, 8/21 18:45:00, 25.30375, 7.71372E-003, 576.00000, 0.00000, 0.00000
 Zone Sizing Information, THERMAL ZONE 15, Heating, 3364.07025, 4205.08782, 0.17125, 0.21406, SAN FRANCISCO INTL AP ANN HTG 99.6% CONDNS DB, 1/21 24:00:00, 3.80000, 4.96421E-003, 576.00000, 0.00000, 0.00000
 Zone Sizing Information, THERMAL ZONE 14, Cooling, 5449.55478, 6266.98800, 0.31676, 0.36427, SAN FRANCISCO INTL AP ANN CLG .4% CONDNS DB=>MWB, 8/21 14:45:00, 28.30000, 7.71372E-003, 81.00000, 0.00000, 0.00000
 Zone Sizing Information, THERMAL ZONE 14, Heating, 2246.71530, 2808.39413, 0.11437, 0.14296, SAN FRANCISCO INTL AP ANN HTG 99.6% CONDNS DB, 1/21 24:00:00, 3.80000, 4.96421E-003, 81.00000, 0.00000, 0.00000
 Zone Sizing Information, THERMAL ZONE 18, Cooling, 5651.99065, 6499.78924, 0.32852, 0.37780, SAN FRANCISCO INTL AP ANN CLG .4% CONDNS DB=>MWB, 8/21 10:45:00, 26.02625, 7.71373E-003, 81.00000, 0.00000, 0.00000
 Zone Sizing Information, THERMAL ZONE 18, Heating, 2246.71530, 2808.39413, 0.11437, 0.14296, SAN FRANCISCO INTL AP ANN HTG 99.6% CONDNS DB, 1/21 24:00:00, 3.80000, 4.96421E-003, 81.00000, 0.00000, 0.00000
 Zone Sizing Information, THERMAL ZONE 24, Cooling, 5419.24062, 6232.12671, 0.31499, 0.36224, SAN FRANCISCO INTL AP ANN CLG .4% CONDNS DB=>MWB, 8/21 10:45:00, 26.02625, 7.71373E-003, 81.00000, 0.00000, 0.00000
 Zone Sizing Information, THERMAL ZONE 24, Heating, 2584.44153, 3230.55191, 0.13156, 0.16445, SAN FRANCISCO INTL AP ANN HTG 99.6% CONDNS DB, 1/21 24:00:00, 3.80000, 4.96421E-003, 81.00000, 0.00000, 0.00000
 Zone Sizing Information, THERMAL ZONE 2, Cooling, 4530.05568, 5209.56403, 0.26331, 0.30281, SAN FRANCISCO INTL AP ANN CLG .4% CONDNS DB=>MWB, 8/21 17:15:00, 26.89750, 7.71372E-003, 81.00000, 0.00000, 0.00000
 Zone Sizing Information, THERMAL ZONE 2, Heating, 2781.47180, 3476.83975, 0.14159, 0.17699, SAN FRANCISCO INTL AP ANN HTG 99.6% CONDNS DB, 1/21 24:00:00, 3.80000, 4.96421E-003, 81.00000, 0.00000, 0.00000
 Zone Sizing Information, THERMAL ZONE 7, Heating, 2781.47180, 3476.83975, 0.14159, 0.17699, SAN FRANCISCO INTL AP ANN HTG 99.6% CONDNS DB, 1/21 24:00:00, 3.80000, 4.96421E-003, 81.00000, 0.00000, 0.00000
 Zone Sizing Information, THERMAL ZONE 20, Cooling, 4968.88715, 5714.22022, 0.28882, 0.33214, SAN FRANCISCO INTL AP ANN CLG .4% CONDNS DB=>MWB, 8/21 14:45:00, 28.30000, 7.71372E-003, 81.00000, 0.00000, 0.00000
 Zone Sizing Information, THERMAL ZONE 20, Heating, 2250.85420, 2813.56774, 0.11458, 0.14323, SAN FRANCISCO INTL AP ANN HTG 99.6% CONDNS DB, 1/21 24:00:00, 3.80000, 4.96421E-003, 81.00000, 0.00000, 0.00000
 Zone Sizing Information, THERMAL ZONE 5, Cooling, 624.46669, 718.13670, 3.62972E-002, 4.17417E-002, SAN FRANCISCO INTL AP ANN CLG .4% CONDNS DB=>MWB, 8/21 17:15:00, 26.89750, 7.71372E-003, 576.00000, 0.00000, 0.00000
 Zone Sizing Information, THERMAL ZONE 5, Heating, 1249.49777, 1561.87221, 6.36068E-002, 7.95085E-002, SAN FRANCISCO INTL AP ANN HTG 99.6% CONDNS DB, 1/21 24:00:00, 3.80000, 4.96421E-003, 576.00000, 0.00000, 0.00000
 Zone Sizing Information, THERMAL ZONE 9, Heating, 1662.86249, 2078.57812, 8.46495E-002, 0.10581, SAN FRANCISCO INTL AP ANN HTG 99.6% CONDNS DB, 1/21 24:00:00, 3.80000, 4.96421E-003, 576.00000, 0.00000, 0.00000
 Zone Sizing Information, THERMAL ZONE 23, Cooling, 440.90932, 507.04571, 2.56279E-002, 2.94721E-002, SAN FRANCISCO INTL AP ANN CLG .4% CONDNS DB=>MWB, 8/21 16:00:00, 27.79000, 7.71372E-003, 81.00000, 0.00000, 0.00000
 Zone Sizing Information, THERMAL ZONE 23, Heating, 2250.52938, 2813.16172, 0.11457, 0.14321, SAN FRANCISCO INTL AP ANN HTG 99.6% CONDNS DB, 1/21 24:00:00, 3.80000, 4.96421E-003, 81.00000, 0.00000, 0.00000
 Zone Sizing Information, THERMAL ZONE 11, Cooling, 5377.79759, 6184.46723, 0.31259, 0.35947, SAN FRANCISCO INTL AP ANN CLG .4% CONDNS DB=>MWB, 8/21 14:45:00, 28.30000, 7.71372E-003, 81.00000, 0.00000, 0.00000
 Zone Sizing Information, THERMAL ZONE 11, Heating, 2217.56570, 2771.95712, 0.11289, 0.14111, SAN FRANCISCO INTL AP ANN HTG 99.6% CONDNS DB, 1/21 24:00:00, 3.80000, 4.96421E-003, 81.00000, 0.00000, 0.00000
 Zone Sizing Information, THERMAL ZONE 21, Cooling, 5239.36985, 6025.27533, 0.30454, 0.35022, SAN FRANCISCO INTL AP ANN CLG .4% CONDNS DB=>MWB, 8/21 14:30:00, 28.30000, 7.71372E-003, 81.00000, 0.00000, 0.00000
 Zone Sizing Information, THERMAL ZONE 21, Heating, 2584.44153, 3230.55191, 0.13156, 0.16445, SAN FRANCISCO INTL AP ANN HTG 99.6% CONDNS DB, 1/21 24:00:00, 3.80000, 4.96421E-003, 81.00000, 0.00000, 0.00000
 Zone Sizing Information, THERMAL ZONE 1, Heating, 5405.77299, 6757.21624, 0.27519, 0.34398, SAN FRANCISCO INTL AP ANN HTG 99.6% CONDNS DB, 1/21 24:00:00, 3.80000, 4.96421E-003, 576.00000, 0.00000, 0.00000
 Zone Sizing Information, THERMAL ZONE 25, Cooling, 2962.89741, 3407.33202, 0.17222, 0.19805, SAN FRANCISCO INTL AP ANN CLG .4% CONDNS DB=>MWB, 8/21 14:00:00, 28.30000, 7.71372E-003, 81.00000, 0.00000, 0.00000
 Zone Sizing Information, THERMAL ZONE 25, Heating, 2778.27198, 3472.83997, 0.14143, 0.17679, SAN FRANCISCO INTL AP ANN HTG 99.6% CONDNS DB, 1/21 24:00:00, 3.80000, 4.96421E-003, 81.00000, 0.00000, 0.00000
 Zone Sizing Information, THERMAL ZONE 19, Cooling, 6802.48851, 7822.86179, 0.39540, 0.45470, SAN FRANCISCO INTL AP ANN CLG .4% CONDNS DB=>MWB, 8/21 17:30:00, 26.68500, 7.71373E-003, 81.00000, 0.00000, 0.00000
 Zone Sizing Information, THERMAL ZONE 19, Heating, 2242.45617, 2803.07021, 0.11415, 0.14269, SAN FRANCISCO INTL AP ANN HTG 99.6% CONDNS DB, 1/21 24:00:00, 3.80000, 4.96421E-003, 81.00000, 0.00000, 0.00000
 Zone Sizing Information, THERMAL ZONE 17, Cooling, 846.75881, 973.77264, 4.92180E-002, 5.66007E-002, SAN FRANCISCO INTL AP ANN CLG .4% CONDNS DB=>MWB, 8/21 15:45:00, 27.91750, 7.71373E-003, 81.00000, 0.00000, 0.00000
 Zone Sizing Information, THERMAL ZONE 17, Heating, 2214.93000, 2768.66250, 0.11275, 0.14094, SAN FRANCISCO INTL AP ANN HTG 99.6% CONDNS DB, 1/21 24:00:00, 3.80000, 4.96421E-003, 81.00000, 0.00000, 0.00000
! <System Sizing Information>, System Name, Field Description, Value
 System Sizing Information, AIR LOOP HVAC 1, Calculated Cooling Design Air Flow Rate [m3/s], 5.78608
 System Sizing Information, AIR LOOP HVAC 1, User Cooling Design Air Flow Rate [m3/s], 5.78608
 System Sizing Information, AIR LOOP HVAC 1, Calculated Heating Design Air Flow Rate [m3/s], 3.90813
 System Sizing Information, AIR LOOP HVAC 1, User Heating Design Air Flow Rate [m3/s], 3.90813
! <Component Sizing Information>, Component Type, Component Name, Input Field Description, Value
 Component Sizing Information, AirTerminal:SingleDuct:VAV:Reheat, AIR TERMINAL SINGLE DUCT VAV REHEAT 12, Maximum Air Flow Rate [m3/s], 0.44628
 Component Sizing Information, AirTerminal:SingleDuct:VAV:Reheat, AIR TERMINAL SINGLE DUCT VAV REHEAT 12, Maximum Flow per Zone Floor Area during Reheat [m3/s-m2], 2.03200E-003
 Component Sizing Information, AirTerminal:SingleDuct:VAV:Reheat, AIR TERMINAL SINGLE DUCT VAV REHEAT 12, Maximum Flow Fraction during Reheat [], 0.36881
 Component Sizing Information, AirTerminal:SingleDuct:VAV:Reheat, AIR TERMINAL SINGLE DUCT VAV REHEAT 12, Maximum Reheat Water Flow Rate [m3/s], 1.21088E-004
 Component Sizing Information, AirTerminal:SingleDuct:VAV:Reheat, AIR TERMINAL SINGLE DUCT VAV REHEAT 12, Reheat Coil Sizing Air Volume Flow Rate [m3/s], 0.16412
 Component Sizing Information, Coil:Heating:Water, COIL HEATING WATER 13, Maximum Water Flow Rate [m3/s], 1.21088E-004
 Component Sizing Information, Coil:Heating:Water, COIL HEATING WATER 13, Design Coil Load [W], 5573.72766
 Component Sizing Information, Coil:Heating:Water, COIL HEATING WATER 13, U-Factor Times Area Value [W/K], 317.43191
! <Water Heating Coil Capacity Information>,Component Type,Name,Nominal Total Capacity {W}
Water Heating Coil Capacity Information,Coil:Heating:Water,COIL HEATING WATER 13,9235.15
 Component Sizing Information, AirTerminal:SingleDuct:VAV:Reheat, AIR TERMINAL SINGLE DUCT VAV REHEAT 13, Maximum Air Flow Rate [m3/s], 0.22789
 Component Sizing Information, AirTerminal:SingleDuct:VAV:Reheat, AIR TERMINAL SINGLE DUCT VAV REHEAT 13, Maximum Flow per Zone Floor Area during Reheat [m3/s-m2], 2.03200E-003
 Component Sizing Information, AirTerminal:SingleDuct:VAV:Reheat, AIR TERMINAL SINGLE DUCT VAV REHEAT 13, Maximum Flow Fraction during Reheat [], 0.72224
 Component Sizing Information, AirTerminal:SingleDuct:VAV:Reheat, AIR TERMINAL SINGLE DUCT VAV REHEAT 13, Maximum Reheat Water Flow Rate [m3/s], 1.30438E-004
 Component Sizing Information, AirTerminal:SingleDuct:VAV:Reheat, AIR TERMINAL SINGLE DUCT VAV REHEAT 13, Reheat Coil Sizing Air Volume Flow Rate [m3/s], 0.17679
 Component Sizing Information, Coil:Heating:Water, COIL HEATING WATER 14, Maximum Water Flow Rate [m3/s], 1.30438E-004
 Component Sizing Information, Coil:Heating:Water, COIL HEATING WATER 14, Design Coil Load [W], 6004.09455
 Component Sizing Information, Coil:Heating:Water, COIL HEATING WATER 14, U-Factor Times Area Value [W/K], 162.09544
Water Heating Coil Capacity Information,Coil:Heating:Water,COIL HEATING WATER 14,6727.39
 Component Sizing Information, AirTerminal:SingleDuct:VAV:Reheat, AIR TERMINAL SINGLE DUCT VAV REHEAT 22, Maximum Air Flow Rate [m3/s], 0.42245
 Component Sizing Information, AirTerminal:SingleDuct:VAV:Reheat, AIR TERMINAL SINGLE DUCT VAV REHEAT 22, Maximum Flow per Zone Floor Area during Reheat [m3/s-m2], 2.03200E-003
 Component Sizing Information, AirTerminal:SingleDuct:VAV:Reheat, AIR TERMINAL SINGLE DUCT VAV REHEAT 22, Maximum Flow Fraction during Reheat [], 0.38962
 Component Sizing Information, AirTerminal:SingleDuct:VAV:Reheat, AIR TERMINAL SINGLE DUCT VAV REHEAT 22, Maximum Reheat Water Flow Rate [m3/s], 1.05661E-004
 Component Sizing Information, AirTerminal:SingleDuct:VAV:Reheat, AIR TERMINAL SINGLE DUCT VAV REHEAT 22, Reheat Coil Sizing Air Volume Flow Rate [m3/s], 0.14321
 Component Sizing Information, Coil:Heating:Water, COIL HEATING WATER 23, Maximum Water Flow Rate [m3/s], 1.05661E-004
 Component Sizing Information, Coil:Heating:Water, COIL HEATING WATER 23, Design Coil Load [W], 4863.59553
 Component Sizing Information, Coil:Heating:Water, COIL HEATING WATER 23, U-Factor Times Area Value [W/K], 300.48004
Water Heating Coil Capacity Information,Coil:Heating:Water,COIL HEATING WATER 23,8324.76
 Component Sizing Information, AirTerminal:SingleDuct:VAV:Reheat, AIR TERMINAL SINGLE DUCT VAV REHEAT 16, Maximum Air Flow Rate [m3/s], 0.45029
 Component Sizing Information, AirTerminal:SingleDuct:VAV:Reheat, AIR TERMINAL SINGLE DUCT VAV REHEAT 16, Maximum Flow per Zone Floor Area during Reheat [m3/s-m2], 2.03200E-003
 Component Sizing Information, AirTerminal:SingleDuct:VAV:Reheat, AIR TERMINAL SINGLE DUCT VAV REHEAT 16, Maximum Flow Fraction during Reheat [], 0.36552
 Component Sizing Information, AirTerminal:SingleDuct:VAV:Reheat, AIR TERMINAL SINGLE DUCT VAV REHEAT 16, Maximum Reheat Water Flow Rate [m3/s], 1.03989E-004
 Component Sizing Information, AirTerminal:SingleDuct:VAV:Reheat, AIR TERMINAL SINGLE DUCT VAV REHEAT 16, Reheat Coil Sizing Air Volume Flow Rate [m3/s], 0.14094
 Component Sizing Information, Coil:Heating:Water, COIL HEATING WATER 17, Maximum Water Flow Rate [m3/s], 1.03989E-004
 Component Sizing Information, Coil:Heating:Water, COIL HEATING WATER 17, Design Coil Load [W], 4786.66208
 Component Sizing Information, Coil:Heating:Water, COIL HEATING WATER 17, U-Factor Times Area Value [W/K], 320.28633
Water Heating Coil Capacity Information,Coil:Heating:Water,COIL HEATING WATER 17,8441.44
 Component Sizing Information, AirTerminal:SingleDuct:VAV:Reheat, AIR TERMINAL SINGLE DUCT VAV REHEAT 9, Maximum Air Flow Rate [m3/s], 9.17898E-002
 Component Sizing Information, AirTerminal:SingleDuct:VAV:Reheat, AIR TERMINAL SINGLE DUCT VAV REHEAT 9, Maximum Flow per Zone Floor Area during Reheat [m3/s-m2], 1.59357E-004
 Component Sizing Information, AirTerminal:SingleDuct:VAV:Reheat, AIR TERMINAL SINGLE DUCT VAV REHEAT 9, Maximum Flow Fraction during Reheat [], 1.00000
 Component Sizing Information, AirTerminal:SingleDuct:VAV:Reheat, AIR TERMINAL SINGLE DUCT VAV REHEAT 9, Maximum Reheat Water Flow Rate [m3/s], 6.77244E-005
 Component Sizing Information, AirTerminal:SingleDuct:VAV:Reheat, AIR TERMINAL SINGLE DUCT VAV REHEAT 9, Reheat Coil Sizing Air Volume Flow Rate [m3/s], 9.17898E-002
 Component Sizing Information, Coil:Heating:Water, COIL HEATING WATER 10, Maximum Water Flow Rate [m3/s], 6.77244E-005
 Component Sizing Information, Coil:Heating:Water, COIL HEATING WATER 10, Design Coil Load [W], 3117.37606
 Component Sizing Information, Coil:Heating:Water, COIL HEATING WATER 10, U-Factor Times Area Value [W/K], 65.28870
Water Heating Coil Capacity Information,Coil:Heating:Water,COIL HEATING WATER 10,2952.99
 Component Sizing Information, AirTerminal:SingleDuct:VAV:Reheat, AIR TERMINAL SINGLE DUCT VAV REHEAT 2, Maximum Air Flow Rate [m3/s], 0.37137
 Component Sizing Information, AirTerminal:SingleDuct:VAV:Reheat, AIR TERMINAL SINGLE DUCT VAV REHEAT 2, Maximum Flow per Zone Floor Area during Reheat [m3/s-m2], 2.03200E-003
 Component Sizing Information, AirTerminal:SingleDuct:VAV:Reheat, AIR TERMINAL SINGLE DUCT VAV REHEAT 2, Maximum Flow Fraction during Reheat [], 0.44321
 Component Sizing Information, AirTerminal:SingleDuct:VAV:Reheat, AIR TERMINAL SINGLE DUCT VAV REHEAT 2, Maximum Reheat Water Flow Rate [m3/s], 1.04113E-004
 Component Sizing Information, AirTerminal:SingleDuct:VAV:Reheat, AIR TERMINAL SINGLE DUCT VAV REHEAT 2, Reheat Coil Sizing Air Volume Flow Rate [m3/s], 0.14111
 Component Sizing Information, Coil:Heating:Water, COIL HEATING WATER 3, Maximum Water Flow Rate [m3/s], 1.04113E-004
 Component Sizing Information, Coil:Heating:Water, COIL HEATING WATER 3, Design Coil Load [W], 4792.35807
 Component Sizing Information, Coil:Heating:Water, COIL HEATING WATER 3, U-Factor Times Area Value [W/K], 264.14817
Water Heating Coil Capacity Information,Coil:Heating:Water,COIL HEATING WATER 3,7832.92
 Component Sizing Information, AirTerminal:SingleDuct:VAV:Reheat, AIR TERMINAL SINGLE DUCT VAV REHEAT 24, Maximum Air Flow Rate [m3/s], 0.14269
 Component Sizing Information, AirTerminal:SingleDuct:VAV:Reheat, AIR TERMINAL SINGLE DUCT VAV REHEAT 24, Maximum Flow per Zone Floor Area during Reheat [m3/s-m2], 1.76164E-003
 Component Sizing Information, AirTerminal:SingleDuct:VAV:Reheat, AIR TERMINAL SINGLE DUCT VAV REHEAT 24, Maximum Flow Fraction during Reheat [], 1.00000
 Component Sizing Information, AirTerminal:SingleDuct:VAV:Reheat, AIR TERMINAL SINGLE DUCT VAV REHEAT 24, Maximum Reheat Water Flow Rate [m3/s], 1.05282E-004
 Component Sizing Information, AirTerminal:SingleDuct:VAV:Reheat, AIR TERMINAL SINGLE DUCT VAV REHEAT 24, Reheat Coil Sizing Air Volume Flow Rate [m3/s], 0.14269
 Component Sizing Information, Coil:Heating:Water, COIL HEATING WATER 25, Maximum Water Flow Rate [m3/s], 1.05282E-004
 Component Sizing Information, Coil:Heating:Water, COIL HEATING WATER 25, Design Coil Load [W], 4846.14860
 Component Sizing Information, Coil:Heating:Water, COIL HEATING WATER 25, U-Factor Times Area Value [W/K], 101.49521
Water Heating Coil Capacity Information,Coil:Heating:Water,COIL HEATING WATER 25,4590.60
 Component Sizing Information, AirTerminal:SingleDuct:VAV:Reheat, AIR TERMINAL SINGLE DUCT VAV REHEAT 4, Maximum Air Flow Rate [m3/s], 0.16412
 Component Sizing Information, AirTerminal:SingleDuct:VAV:Reheat, AIR TERMINAL SINGLE DUCT VAV REHEAT 4, Maximum Flow per Zone Floor Area during Reheat [m3/s-m2], 2.02612E-003
 Component Sizing Information, AirTerminal:SingleDuct:VAV:Reheat, AIR TERMINAL SINGLE DUCT VAV REHEAT 4, Maximum Flow Fraction during Reheat [], 1.00000
 Component Sizing Information, AirTerminal:SingleDuct:VAV:Reheat, AIR TERMINAL SINGLE DUCT VAV REHEAT 4, Maximum Reheat Water Flow Rate [m3/s], 1.21088E-004
 Component Sizing Information, AirTerminal:SingleDuct:VAV:Reheat, AIR TERMINAL SINGLE DUCT VAV REHEAT 4, Reheat Coil Sizing Air Volume Flow Rate [m3/s], 0.16412
 Component Sizing Information, Coil:Heating:Water, COIL HEATING WATER 5, Maximum Water Flow Rate [m3/s], 1.21088E-004
 Component Sizing Information, Coil:Heating:Water, COIL HEATING WATER 5, Design Coil Load [W], 5573.72766
 Component Sizing Information, Coil:Heating:Water, COIL HEATING WATER 5, U-Factor Times Area Value [W/K], 116.73325
Water Heating Coil Capacity Information,Coil:Heating:Water,COIL HEATING WATER 5,5279.81
 Component Sizing Information, AirTerminal:SingleDuct:VAV:Reheat, AIR TERMINAL SINGLE DUCT VAV REHEAT 8, Maximum Air Flow Rate [m3/s], 0.33883
 Component Sizing Information, AirTerminal:SingleDuct:VAV:Reheat, AIR TERMINAL SINGLE DUCT VAV REHEAT 8, Maximum Flow per Zone Floor Area during Reheat [m3/s-m2], 2.03200E-003
 Component Sizing Information, AirTerminal:SingleDuct:VAV:Reheat, AIR TERMINAL SINGLE DUCT VAV REHEAT 8, Maximum Flow Fraction during Reheat [], 0.48577
 Component Sizing Information, AirTerminal:SingleDuct:VAV:Reheat, AIR TERMINAL SINGLE DUCT VAV REHEAT 8, Maximum Reheat Water Flow Rate [m3/s], 1.05676E-004
 Component Sizing Information, AirTerminal:SingleDuct:VAV:Reheat, AIR TERMINAL SINGLE DUCT VAV REHEAT 8, Reheat Coil Sizing Air Volume Flow Rate [m3/s], 0.14323
 Component Sizing Information, Coil:Heating:Water, COIL HEATING WATER 9, Maximum Water Flow Rate [m3/s], 1.05676E-004
 Component Sizing Information, Coil:Heating:Water, COIL HEATING WATER 9, Design Coil Load [W], 4864.29749
 Component Sizing Information, Coil:Heating:Water, COIL HEATING WATER 9, U-Factor Times Area Value [W/K], 241.00463
Water Heating Coil Capacity Information,Coil:Heating:Water,COIL HEATING WATER 9,7587.39
 Component Sizing Information, AirTerminal:SingleDuct:VAV:Reheat, AIR TERMINAL SINGLE DUCT VAV REHEAT 3, Maximum Air Flow Rate [m3/s], 0.21406
 Component Sizing Information, AirTerminal:SingleDuct:VAV:Reheat, AIR TERMINAL SINGLE DUCT VAV REHEAT 3, Maximum Flow per Zone Floor Area during Reheat [m3/s-m2], 3.71638E-004
 Component Sizing Information, AirTerminal:SingleDuct:VAV:Reheat, AIR TERMINAL SINGLE DUCT VAV REHEAT 3, Maximum Flow Fraction during Reheat [], 1.00000
 Component Sizing Information, AirTerminal:SingleDuct:VAV:Reheat, AIR TERMINAL SINGLE DUCT VAV REHEAT 3, Maximum Reheat Water Flow Rate [m3/s], 1.57941E-004
 Component Sizing Information, AirTerminal:SingleDuct:VAV:Reheat, AIR TERMINAL SINGLE DUCT VAV REHEAT 3, Reheat Coil Sizing Air Volume Flow Rate [m3/s], 0.21406
 Component Sizing Information, Coil:Heating:Water, COIL HEATING WATER 4, Maximum Water Flow Rate [m3/s], 1.57941E-004
 Component Sizing Information, Coil:Heating:Water, COIL HEATING WATER 4, Design Coil Load [W], 7270.05708
 Component Sizing Information, Coil:Heating:Water, COIL HEATING WATER 4, U-Factor Times Area Value [W/K], 152.26029
Water Heating Coil Capacity Information,Coil:Heating:Water,COIL HEATING WATER 4,6886.69
 Component Sizing Information, AirTerminal:SingleDuct:VAV:Reheat, AIR TERMINAL SINGLE DUCT VAV REHEAT 10, Maximum Air Flow Rate [m3/s], 0.36427
 Component Sizing Information, AirTerminal:SingleDuct:VAV:Reheat, AIR TERMINAL SINGLE DUCT VAV REHEAT 10, Maximum Flow per Zone Floor Area during Reheat [m3/s-m2], 2.03200E-003
 Component Sizing Information, AirTerminal:SingleDuct:VAV:Reheat, AIR TERMINAL SINGLE DUCT VAV REHEAT 10, Maximum Flow Fraction during Reheat [], 0.45184
 Component Sizing Information, AirTerminal:SingleDuct:VAV:Reheat, AIR TERMINAL SINGLE DUCT VAV REHEAT 10, Maximum Reheat Water Flow Rate [m3/s], 1.05482E-004
 Component Sizing Information, AirTerminal:SingleDuct:VAV:Reheat, AIR TERMINAL SINGLE DUCT VAV REHEAT 10, Reheat Coil Sizing Air Volume Flow Rate [m3/s], 0.14296
 Component Sizing Information, Coil:Heating:Water, COIL HEATING WATER 11, Maximum Water Flow Rate [m3/s], 1.05482E-004
 Component Sizing Information, Coil:Heating:Water, COIL HEATING WATER 11, Design Coil Load [W], 4855.35297
 Component Sizing Information, Coil:Heating:Water, COIL HEATING WATER 11, U-Factor Times Area Value [W/K], 259.09958
Water Heating Coil Capacity Information,Coil:Heating:Water,COIL HEATING WATER 11,7826.97
 Component Sizing Information, AirTerminal:SingleDuct:VAV:Reheat, AIR TERMINAL SINGLE DUCT VAV REHEAT 19, Maximum Air Flow Rate [m3/s], 0.37780
 Component Sizing Information, AirTerminal:SingleDuct:VAV:Reheat, AIR TERMINAL SINGLE DUCT VAV REHEAT 19, Maximum Flow per Zone Floor Area during Reheat [m3/s-m2], 2.03200E-003
 Component Sizing Information, AirTerminal:SingleDuct:VAV:Reheat, AIR TERMINAL SINGLE DUCT VAV REHEAT 19, Maximum Flow Fraction during Reheat [], 0.43566
 Component Sizing Information, AirTerminal:SingleDuct:VAV:Reheat, AIR TERMINAL SINGLE DUCT VAV REHEAT 19, Maximum Reheat Water Flow Rate [m3/s], 1.05482E-004
 Component Sizing Information, AirTerminal:SingleDuct:VAV:Reheat, AIR TERMINAL SINGLE DUCT VAV REHEAT 19, Reheat Coil Sizing Air Volume Flow Rate [m3/s], 0.14296
 Component Sizing Information, Coil:Heating:Water, COIL HEATING WATER 20, Maximum Water Flow Rate [m3/s], 1.05482E-004
 Component Sizing Information, Coil:Heating:Water, COIL HEATING WATER 20, Design Coil Load [W], 4855.35297
 Component Sizing Information, Coil:Heating:Water, COIL HEATING WATER 20, U-Factor Times Area Value [W/K], 268.72441
Water Heating Coil Capacity Information,Coil:Heating:Water,COIL HEATING WATER 20,7949.66
 Component Sizing Information, AirTerminal:SingleDuct:VAV:Reheat, AIR TERMINAL SINGLE DUCT VAV REHEAT 20, Maximum Air Flow Rate [m3/s], 0.36224
 Component Sizing Information, AirTerminal:SingleDuct:VAV:Reheat, AIR TERMINAL SINGLE DUCT VAV REHEAT 20, Maximum Flow per Zone Floor Area during Reheat [m3/s-m2], 2.03200E-003
 Component Sizing Information, AirTerminal:SingleDuct:VAV:Reheat, AIR TERMINAL SINGLE DUCT VAV REHEAT 20, Maximum Flow Fraction during Reheat [], 0.45437
 Component Sizing Information, AirTerminal:SingleDuct:VAV:Reheat, AIR TERMINAL SINGLE DUCT VAV REHEAT 20, Maximum Reheat Water Flow Rate [m3/s], 1.21338E-004
 Component Sizing Information, AirTerminal:SingleDuct:VAV:Reheat, AIR TERMINAL SINGLE DUCT VAV REHEAT 20, Reheat Coil Sizing Air Volume Flow Rate [m3/s], 0.16445
 Component Sizing Information, Coil:Heating:Water, COIL HEATING WATER 21, Maximum Water Flow Rate [m3/s], 1.21338E-004
 Component Sizing Information, Coil:Heating:Water, COIL HEATING WATER 21, Design Coil Load [W], 5585.20959
 Component Sizing Information, Coil:Heating:Water, COIL HEATING WATER 21, U-Factor Times Area Value [W/K], 257.65829
Water Heating Coil Capacity Information,Coil:Heating:Water,COIL HEATING WATER 21,8426.86
 Component Sizing Information, AirTerminal:SingleDuct:VAV:Reheat, AIR TERMINAL SINGLE DUCT VAV REHEAT 5, Maximum Air Flow Rate [m3/s], 0.30281
 Component Sizing Information, AirTerminal:SingleDuct:VAV:Reheat, AIR TERMINAL SINGLE DUCT VAV REHEAT 5, Maximum Flow per Zone Floor Area during Reheat [m3/s-m2], 2.03200E-003
 Component Sizing Information, AirTerminal:SingleDuct:VAV:Reheat, AIR TERMINAL SINGLE DUCT VAV REHEAT 5, Maximum Flow Fraction during Reheat [], 0.54356
 Component Sizing Information, AirTerminal:SingleDuct:VAV:Reheat, AIR TERMINAL SINGLE DUCT VAV REHEAT 5, Maximum Reheat Water Flow Rate [m3/s], 1.30588E-004
 Component Sizing Information, AirTerminal:SingleDuct:VAV:Reheat, AIR TERMINAL SINGLE DUCT VAV REHEAT 5, Reheat Coil Sizing Air Volume Flow Rate [m3/s], 0.17699
 Component Sizing Information, Coil:Heating:Water, COIL HEATING WATER 6, Maximum Water Flow Rate [m3/s], 1.30588E-004
 Component Sizing Information, Coil:Heating:Water, COIL HEATING WATER 6, Design Coil Load [W], 6011.00965
 Component Sizing Information, Coil:Heating:Water, COIL HEATING WATER 6, U-Factor Times Area Value [W/K], 215.38168
Water Heating Coil Capacity Information,Coil:Heating:Water,COIL HEATING WATER 6,7962.91
 Component Sizing Information, AirTerminal:SingleDuct:VAV:Reheat, AIR TERMINAL SINGLE DUCT VAV REHEAT 7, Maximum Air Flow Rate [m3/s], 0.17699
 Component Sizing Information, AirTerminal:SingleDuct:VAV:Reheat, AIR TERMINAL SINGLE DUCT VAV REHEAT 7, Maximum Flow per Zone Floor Area during Reheat [m3/s-m2], 2.03200E-003
 Component Sizing Information, AirTerminal:SingleDuct:VAV:Reheat, AIR TERMINAL SINGLE DUCT VAV REHEAT 7, Maximum Flow Fraction during Reheat [], 0.92994
 Component Sizing Information, AirTerminal:SingleDuct:VAV:Reheat, AIR TERMINAL SINGLE DUCT VAV REHEAT 7, Maximum Reheat Water Flow Rate [m3/s], 1.30588E-004
 Component Sizing Information, AirTerminal:SingleDuct:VAV:Reheat, AIR TERMINAL SINGLE DUCT VAV REHEAT 7, Reheat Coil Sizing Air Volume Flow Rate [m3/s], 0.17699
 Component Sizing Information, Coil:Heating:Water, COIL HEATING WATER 8, Maximum Water Flow Rate [m3/s], 1.30588E-004
 Component Sizing Information, Coil:Heating:Water, COIL HEATING WATER 8, Design Coil Load [W], 6011.00965
 Component Sizing Information, Coil:Heating:Water, COIL HEATING WATER 8, U-Factor Times Area Value [W/K], 125.89146
Water Heating Coil Capacity Information,Coil:Heating:Water,COIL HEATING WATER 8,5694.04
 Component Sizing Information, AirTerminal:SingleDuct:VAV:Reheat, AIR TERMINAL SINGLE DUCT VAV REHEAT 6, Maximum Air Flow Rate [m3/s], 0.33214
 Component Sizing Information, AirTerminal:SingleDuct:VAV:Reheat, AIR TERMINAL SINGLE DUCT VAV REHEAT 6, Maximum Flow per Zone Floor Area during Reheat [m3/s-m2], 2.03200E-003
 Component Sizing Information, AirTerminal:SingleDuct:VAV:Reheat, AIR TERMINAL SINGLE DUCT VAV REHEAT 6, Maximum Flow Fraction during Reheat [], 0.49555
 Component Sizing Information, AirTerminal:SingleDuct:VAV:Reheat, AIR TERMINAL SINGLE DUCT VAV REHEAT 6, Maximum Reheat Water Flow Rate [m3/s], 1.05676E-004
 Component Sizing Information, AirTerminal:SingleDuct:VAV:Reheat, AIR TERMINAL SINGLE DUCT VAV REHEAT 6, Reheat Coil Sizing Air Volume Flow Rate [m3/s], 0.14323
 Component Sizing Information, Coil:Heating:Water, COIL HEATING WATER 7, Maximum Water Flow Rate [m3/s], 1.05676E-004
 Component Sizing Information, Coil:Heating:Water, COIL HEATING WATER 7, Design Coil Load [W], 4864.29749
 Component Sizing Information, Coil:Heating:Water, COIL HEATING WATER 7, U-Factor Times Area Value [W/K], 236.24620
Water Heating Coil Capacity Information,Coil:Heating:Water,COIL HEATING WATER 7,7518.39
 Component Sizing Information, AirTerminal:SingleDuct:VAV:Reheat, AIR TERMINAL SINGLE DUCT VAV REHEAT 25, Maximum Air Flow Rate [m3/s], 7.95085E-002
 Component Sizing Information, AirTerminal:SingleDuct:VAV:Reheat, AIR TERMINAL SINGLE DUCT VAV REHEAT 25, Maximum Flow per Zone Floor Area during Reheat [m3/s-m2], 1.38036E-004
 Component Sizing Information, AirTerminal:SingleDuct:VAV:Reheat, AIR TERMINAL SINGLE DUCT VAV REHEAT 25, Maximum Flow Fraction during Reheat [], 1.00000
 Component Sizing Information, AirTerminal:SingleDuct:VAV:Reheat, AIR TERMINAL SINGLE DUCT VAV REHEAT 25, Maximum Reheat Water Flow Rate [m3/s], 5.86630E-005
 Component Sizing Information, AirTerminal:SingleDuct:VAV:Reheat, AIR TERMINAL SINGLE DUCT VAV REHEAT 25, Reheat Coil Sizing Air Volume Flow Rate [m3/s], 7.95085E-002
 Component Sizing Information, Coil:Heating:Water, COIL HEATING WATER 26, Maximum Water Flow Rate [m3/s], 5.86630E-005
 Component Sizing Information, Coil:Heating:Water, COIL HEATING WATER 26, Design Coil Load [W], 2700.27658
 Component Sizing Information, Coil:Heating:Water, COIL HEATING WATER 26, U-Factor Times Area Value [W/K], 56.55319
Water Heating Coil Capacity Information,Coil:Heating:Water,COIL HEATING WATER 26,2557.89
 Component Sizing Information, AirTerminal:SingleDuct:VAV:Reheat, AIR TERMINAL SINGLE DUCT VAV REHEAT 21, Maximum Air Flow Rate [m3/s], 0.10581
 Component Sizing Information, AirTerminal:SingleDuct:VAV:Reheat, AIR TERMINAL SINGLE DUCT VAV REHEAT 21, Maximum Flow per Zone Floor Area during Reheat [m3/s-m2], 1.83701E-004
 Component Sizing Information, AirTerminal:SingleDuct:VAV:Reheat, AIR TERMINAL SINGLE DUCT VAV REHEAT 21, Maximum Flow Fraction during Reheat [], 1.00000
 Component Sizing Information, AirTerminal:SingleDuct:VAV:Reheat, AIR TERMINAL SINGLE DUCT VAV REHEAT 21, Maximum Reheat Water Flow Rate [m3/s], 7.80702E-005
 Component Sizing Information, AirTerminal:SingleDuct:VAV:Reheat, AIR TERMINAL SINGLE DUCT VAV REHEAT 21, Reheat Coil Sizing Air Volume Flow Rate [m3/s], 0.10581
 Component Sizing Information, Coil:Heating:Water, COIL HEATING WATER 22, Maximum Water Flow Rate [m3/s], 7.80702E-005
 Component Sizing Information, Coil:Heating:Water, COIL HEATING WATER 22, Design Coil Load [W], 3593.59477
 Component Sizing Information, Coil:Heating:Water, COIL HEATING WATER 22, U-Factor Times Area Value [W/K], 75.26238
Water Heating Coil Capacity Information,Coil:Heating:Water,COIL HEATING WATER 22,3404.10
 Component Sizing Information, AirTerminal:SingleDuct:VAV:Reheat, AIR TERMINAL SINGLE DUCT VAV REHEAT 26, Maximum Air Flow Rate [m3/s], 0.14321
 Component Sizing Information, AirTerminal:SingleDuct:VAV:Reheat, AIR TERMINAL SINGLE DUCT VAV REHEAT 26, Maximum Flow per Zone Floor Area during Reheat [m3/s-m2], 1.76798E-003
 Component Sizing Information, AirTerminal:SingleDuct:VAV:Reheat, AIR TERMINAL SINGLE DUCT VAV REHEAT 26, Maximum Flow Fraction during Reheat [], 1.00000
 Component Sizing Information, AirTerminal:SingleDuct:VAV:Reheat, AIR TERMINAL SINGLE DUCT VAV REHEAT 26, Maximum Reheat Water Flow Rate [m3/s], 1.05661E-004
 Component Sizing Information, AirTerminal:SingleDuct:VAV:Reheat, AIR TERMINAL SINGLE DUCT VAV REHEAT 26, Reheat Coil Sizing Air Volume Flow Rate [m3/s], 0.14321
 Component Sizing Information, Coil:Heating:Water, COIL HEATING WATER 27, Maximum Water Flow Rate [m3/s], 1.05661E-004
 Component Sizing Information, Coil:Heating:Water, COIL HEATING WATER 27, Design Coil Load [W], 4863.59553
 Component Sizing Information, Coil:Heating:Water, COIL HEATING WATER 27, U-Factor Times Area Value [W/K], 101.86061
Water Heating Coil Capacity Information,Coil:Heating:Water,COIL HEATING WATER 27,4607.13
 Component Sizing Information, AirTerminal:SingleDuct:VAV:Reheat, AIR TERMINAL SINGLE DUCT VAV REHEAT 15, Maximum Air Flow Rate [m3/s], 0.35947
 Component Sizing Information, AirTerminal:SingleDuct:VAV:Reheat, AIR TERMINAL SINGLE DUCT VAV REHEAT 15, Maximum Flow per Zone Floor Area during Reheat [m3/s-m2], 2.03200E-003
 Component Sizing Information, AirTerminal:SingleDuct:VAV:Reheat, AIR TERMINAL SINGLE DUCT VAV REHEAT 15, Maximum Flow Fraction during Reheat [], 0.45787
 Component Sizing Information, AirTerminal:SingleDuct:VAV:Reheat, AIR TERMINAL SINGLE DUCT VAV REHEAT 15, Maximum Reheat Water Flow Rate [m3/s], 1.04113E-004
 Component Sizing Information, AirTerminal:SingleDuct:VAV:Reheat, AIR TERMINAL SINGLE DUCT VAV REHEAT 15, Reheat Coil Sizing Air Volume Flow Rate [m3/s], 0.14111
 Component Sizing Information, Coil:Heating:Water, COIL HEATING WATER 16, Maximum Water Flow Rate [m3/s], 1.04113E-004
 Component Sizing Information, Coil:Heating:Water, COIL HEATING WATER 16, Design Coil Load [W], 4792.35807
 Component Sizing Information, Coil:Heating:Water, COIL HEATING WATER 16, U-Factor Times Area Value [W/K], 255.68788
Water Heating Coil Capacity Information,Coil:Heating:Water,COIL HEATING WATER 16,7724.77
 Component Sizing Information, AirTerminal:SingleDuct:VAV:Reheat, AIR TERMINAL SINGLE DUCT VAV REHEAT 14, Maximum Air Flow Rate [m3/s], 0.35022
 Component Sizing Information, AirTerminal:SingleDuct:VAV:Reheat, AIR TERMINAL SINGLE DUCT VAV REHEAT 14, Maximum Flow per Zone Floor Area during Reheat [m3/s-m2], 2.03200E-003
 Component Sizing Information, AirTerminal:SingleDuct:VAV:Reheat, AIR TERMINAL SINGLE DUCT VAV REHEAT 14, Maximum Flow Fraction during Reheat [], 0.46997
 Component Sizing Information, AirTerminal:SingleDuct:VAV:Reheat, AIR TERMINAL SINGLE DUCT VAV REHEAT 14, Maximum Reheat Water Flow Rate [m3/s], 1.21338E-004
 Component Sizing Information, AirTerminal:SingleDuct:VAV:Reheat, AIR TERMINAL SINGLE DUCT VAV REHEAT 14, Reheat Coil Sizing Air Volume Flow Rate [m3/s], 0.16445
 Component Sizing Information, Coil:Heating:Water, COIL HEATING WATER 15, Maximum Water Flow Rate [m3/s], 1.21338E-004
 Component Sizing Information, Coil:Heating:Water, COIL HEATING WATER 15, Design Coil Load [W], 5585.20959
 Component Sizing Information, Coil:Heating:Water, COIL HEATING WATER 15, U-Factor Times Area Value [W/K], 249.10632
Water Heating Coil Capacity Information,Coil:Heating:Water,COIL HEATING WATER 15,8290.85
 Component Sizing Information, AirTerminal:SingleDuct:VAV:Reheat, AIR TERMINAL SINGLE DUCT VAV REHEAT 23, Maximum Air Flow Rate [m3/s], 0.34398
 Component Sizing Information, AirTerminal:SingleDuct:VAV:Reheat, AIR TERMINAL SINGLE DUCT VAV REHEAT 23, Maximum Flow per Zone Floor Area during Reheat [m3/s-m2], 5.97191E-004
 Component Sizing Information, AirTerminal:SingleDuct:VAV:Reheat, AIR TERMINAL SINGLE DUCT VAV REHEAT 23, Maximum Flow Fraction during Reheat [], 1.00000
 Component Sizing Information, AirTerminal:SingleDuct:VAV:Reheat, AIR TERMINAL SINGLE DUCT VAV REHEAT 23, Maximum Reheat Water Flow Rate [m3/s], 2.53797E-004
 Component Sizing Information, AirTerminal:SingleDuct:VAV:Reheat, AIR TERMINAL SINGLE DUCT VAV REHEAT 23, Reheat Coil Sizing Air Volume Flow Rate [m3/s], 0.34398
 Component Sizing Information, Coil:Heating:Water, COIL HEATING WATER 24, Maximum Water Flow Rate [m3/s], 2.53797E-004
 Component Sizing Information, Coil:Heating:Water, COIL HEATING WATER 24, Design Coil Load [W], 11682.35954
 Component Sizing Information, Coil:Heating:Water, COIL HEATING WATER 24, U-Factor Times Area Value [W/K], 244.66926
Water Heating Coil Capacity Information,Coil:Heating:Water,COIL HEATING WATER 24,11066.33
 Component Sizing Information, AirTerminal:SingleDuct:VAV:Reheat, AIR TERMINAL SINGLE DUCT VAV REHEAT 18, Maximum Air Flow Rate [m3/s], 0.19805
 Component Sizing Information, AirTerminal:SingleDuct:VAV:Reheat, AIR TERMINAL SINGLE DUCT VAV REHEAT 18, Maximum Flow per Zone Floor Area during Reheat [m3/s-m2], 2.03200E-003
 Component Sizing Information, AirTerminal:SingleDuct:VAV:Reheat, AIR TERMINAL SINGLE DUCT VAV REHEAT 18, Maximum Flow Fraction during Reheat [], 0.83106
 Component Sizing Information, AirTerminal:SingleDuct:VAV:Reheat, AIR TERMINAL SINGLE DUCT VAV REHEAT 18, Maximum Reheat Water Flow Rate [m3/s], 1.30438E-004
 Component Sizing Information, AirTerminal:SingleDuct:VAV:Reheat, AIR TERMINAL SINGLE DUCT VAV REHEAT 18, Reheat Coil Sizing Air Volume Flow Rate [m3/s], 0.17679
 Component Sizing Information, Coil:Heating:Water, COIL HEATING WATER 19, Maximum Water Flow Rate [m3/s], 1.30438E-004
 Component Sizing Information, Coil:Heating:Water, COIL HEATING WATER 19, Design Coil Load [W], 6004.09455
 Component Sizing Information, Coil:Heating:Water, COIL HEATING WATER 19, U-Factor Times Area Value [W/K], 140.87105
Water Heating Coil Capacity Information,Coil:Heating:Water,COIL HEATING WATER 19,6143.04
 Component Sizing Information, AirTerminal:SingleDuct:VAV:Reheat, AIR TERMINAL SINGLE DUCT VAV REHEAT 17, Maximum Air Flow Rate [m3/s], 0.45470
 Component Sizing Information, AirTerminal:SingleDuct:VAV:Reheat, AIR TERMINAL SINGLE DUCT VAV REHEAT 17, Maximum Flow per Zone Floor Area during Reheat [m3/s-m2], 2.03200E-003
 Component Sizing Information, AirTerminal:SingleDuct:VAV:Reheat, AIR TERMINAL SINGLE DUCT VAV REHEAT 17, Maximum Flow Fraction during Reheat [], 0.36198
 Component Sizing Information, AirTerminal:SingleDuct:VAV:Reheat, AIR TERMINAL SINGLE DUCT VAV REHEAT 17, Maximum Reheat Water Flow Rate [m3/s], 1.05282E-004
 Component Sizing Information, AirTerminal:SingleDuct:VAV:Reheat, AIR TERMINAL SINGLE DUCT VAV REHEAT 17, Reheat Coil Sizing Air Volume Flow Rate [m3/s], 0.14269
 Component Sizing Information, Coil:Heating:Water, COIL HEATING WATER 18, Maximum Water Flow Rate [m3/s], 1.05282E-004
 Component Sizing Information, Coil:Heating:Water, COIL HEATING WATER 18, Design Coil Load [W], 4846.14860
 Component Sizing Information, Coil:Heating:Water, COIL HEATING WATER 18, U-Factor Times Area Value [W/K], 323.42494
Water Heating Coil Capacity Information,Coil:Heating:Water,COIL HEATING WATER 18,8538.30
 Component Sizing Information, AirTerminal:SingleDuct:VAV:Reheat, AIR TERMINAL SINGLE DUCT VAV REHEAT 11, Maximum Air Flow Rate [m3/s], 0.14094
 Component Sizing Information, AirTerminal:SingleDuct:VAV:Reheat, AIR TERMINAL SINGLE DUCT VAV REHEAT 11, Maximum Flow per Zone Floor Area during Reheat [m3/s-m2], 1.74001E-003
 Component Sizing Information, AirTerminal:SingleDuct:VAV:Reheat, AIR TERMINAL SINGLE DUCT VAV REHEAT 11, Maximum Flow Fraction during Reheat [], 1.00000
 Component Sizing Information, AirTerminal:SingleDuct:VAV:Reheat, AIR TERMINAL SINGLE DUCT VAV REHEAT 11, Maximum Reheat Water Flow Rate [m3/s], 1.03989E-004
 Component Sizing Information, AirTerminal:SingleDuct:VAV:Reheat, AIR TERMINAL SINGLE DUCT VAV REHEAT 11, Reheat Coil Sizing Air Volume Flow Rate [m3/s], 0.14094
 Component Sizing Information, Coil:Heating:Water, COIL HEATING WATER 12, Maximum Water Flow Rate [m3/s], 1.03989E-004
 Component Sizing Information, Coil:Heating:Water, COIL HEATING WATER 12, Design Coil Load [W], 4786.66208
 Component Sizing Information, Coil:Heating:Water, COIL HEATING WATER 12, U-Factor Times Area Value [W/K], 100.24936
Water Heating Coil Capacity Information,Coil:Heating:Water,COIL HEATING WATER 12,4534.25
 Component Sizing Information, Branch, BRANCH {6911DBF3-3A73-4E82-8724-4009EDADB0FF}, Maximum Flow Rate [m3/s], 5.78608
 Component Sizing Information, AirLoopHVAC, AIR LOOP HVAC 1, Design Supply Air Flow Rate [m3/s], 5.78608
 Component Sizing Information, Controller:OutdoorAir, CONTROLLER OUTDOOR AIR 1, Maximum Outdoor Air Flow Rate [m3/s], 5.78608
 Component Sizing Information, Controller:OutdoorAir, CONTROLLER OUTDOOR AIR 1, Minimum Outdoor Air Flow Rate [m3/s], 0.00000
 Component Sizing Information, Coil:Cooling:DX:TwoSpeed, COIL COOLING DX TWO SPEED 1, Rated High Speed Air Flow Rate [m3/s], 5.78608
 Component Sizing Information, Coil:Cooling:DX:TwoSpeed, COIL COOLING DX TWO SPEED 1, Rated High Speed Total Cooling Capacity (gross) [W], 95780.21577
 Component Sizing Information, Coil:Cooling:DX:TwoSpeed, COIL COOLING DX TWO SPEED 1, Rated High Speed Sensible Heat Ratio, 0.79866
 Component Sizing Information, Coil:Cooling:DX:TwoSpeed, COIL COOLING DX TWO SPEED 1, Rated Low Speed Air Flow Rate [m3/s], 1.92850
 Component Sizing Information, Coil:Cooling:DX:TwoSpeed, COIL COOLING DX TWO SPEED 1, Rated Low Speed Total Cooling Capacity (gross) [W], 31923.54591
! <VAV DX Cooling Coil Standard Rating Information>, DX Coil Type, DX Coil Name, Fan Type, Fan Name, Standard Net Cooling Capacity {W}, Standard Net Cooling Capacity {Btu/h}, IEER {Btu/W-h}, COP 100% Capacity {W/W}, COP 75% Capacity {W/W}, COP 50% Capacity {W/W}, COP 25% Capacity {W/W}, EER 100% Capacity {Btu/W-h}, EER 75% Capacity {Btu/W-h}, EER 50% Capacity {Btu/W-h}, EER 25% Capacity {Btu/W-h}, Supply Air Flow 100% {kg/s}, Supply Air Flow 75% {kg/s},Supply Air Flow 50% {kg/s},Supply Air Flow 25% {kg/s}
 VAV DX Cooling Coil Standard Rating Information, Coil:Cooling:DX:TwoSpeed,COIL COOLING DX TWO SPEED 1,N/A,N/A,91468.04,312101.91,22.01,4.21,5.41,7.46,10.04,14.35,18.45,25.46,34.24,6.6908,5.1413,3.4139,1.8225,
 Component Sizing Information, Coil:Heating:Water, COIL HEATING WATER 1, Maximum Water Flow Rate [m3/s], 4.10624E-004
 Component Sizing Information, Coil:Heating:Water, COIL HEATING WATER 1, Design Coil Load [W], 18901.14926
 Component Sizing Information, Coil:Heating:Water, COIL HEATING WATER 1, U-Factor Times Area Value [W/K], 287.49236
Water Heating Coil Capacity Information,Coil:Heating:Water,COIL HEATING WATER 1,16899.05
 Component Sizing Information, Fan:VariableVolume, FAN VARIABLE VOLUME 1, Maximum Flow Rate [m3/s], 5.78608
 Component Sizing Information, Controller:WaterCoil, CONTROLLER WATER COIL 1, Maximum Actuated Flow [m3/s], 4.10624E-004
 Component Sizing Information, Controller:WaterCoil, CONTROLLER WATER COIL 1, Controller Convergence Tolerance, 1.00000E-003
 Component Sizing Information, Boiler:HotWater, BOILER HOT WATER 1, Nominal Capacity [W], 152216.67945
 Component Sizing Information, Boiler:HotWater, BOILER HOT WATER 1, Design Water Flow Rate [m3/s], 3.29413E-003
 Component Sizing Information, PlantLoop, PLANT LOOP 1, Maximum Loop Flow Rate [m3/s], 3.29413E-003
 Component Sizing Information, PlantLoop, PLANT LOOP 1, Plant Loop Volume [m3], 3.70589
 Component Sizing Information, Pump:VariableSpeed, PUMP VARIABLE SPEED 1, Rated Flow Rate [m3/s], 3.29413E-003
 Component Sizing Information, Pump:VariableSpeed, PUMP VARIABLE SPEED 1, Rated Power Consumption [W], 841.60753
! <Environment>,Environment Name,Environment Type, Start Date, End Date, Start DayOfWeek, Duration {#days}, Source:Start DayOfWeek,  Use Daylight Saving, Use Holidays, Apply Weekend Holiday Rule,  Use Rain Values, Use Snow Values
! <Environment:Special Days>, Special Day Name, Special Day Type, Source, Start Date, Duration {#days}
! <Environment:Daylight Saving>, Daylight Saving Indicator, Source, Start Date, End Date
! <Environment:WarmupDays>, NumberofWarmupDays
Environment,SAN FRANCISCO INTL AP ANN CLG 1% CONDNS DB=>MWB,SizingPeriod:DesignDay,08/21,08/21,SummerDesignDay,1,N/A,N/A,N/A,N/A,N/A,N/A
Environment:Daylight Saving,No,SizingPeriod:DesignDay
! <Environment:Design Day Data>, Max Dry-Bulb Temp {C}, Temp Range {dC}, Temp Range Ind Type, Hum Ind Value at Max Temp, Hum Ind Type,Pressure {Pa}, Wind Direction {deg CW from N}, Wind Speed {m/s}, Clearness, Rain, Snow
! <Environment:Design_Day_Misc>,DayOfYear,ASHRAE A Coeff,ASHRAE B Coeff,ASHRAE C Coeff,Solar Constant-Annual Variation,Eq of Time {minutes}, Solar Declination Angle {deg}, Solar Model
Environment:Design Day Data,25.70,8.50,DefaultMultipliers,101301,310,5.9,0.00,No ,No 
Environment:Design_Day_Misc,233,1106.3,0.2000,0.1216,1.0,-3.33,12.4,ASHRAETau
Environment:WarmupDays, 10
! <Warmup Convergence Information>,Zone Name,Environment Type/Name,Average Warmup Temperature Difference {deltaC},Std Dev Warmup Temperature Difference {deltaC},Max Temperature Pass/Fail Convergence,Min Temperature Pass/Fail Convergence,Average Warmup Load Difference {W},Std Dev Warmup Load Difference {W},Heating Load Pass/Fail Convergence,Cooling Load Pass/Fail Convergence
 Warmup Convergence Information,THERMAL ZONE 12,SizingPeriod: SAN FRANCISCO INTL AP ANN CLG 1% CONDNS DB=>MWB,8.3828243685E-002,0.1412434665,Pass,Pass,8.0494977810E-002,6.2144519988E-002,Pass,Pass
 Warmup Convergence Information,THERMAL ZONE 3,SizingPeriod: SAN FRANCISCO INTL AP ANN CLG 1% CONDNS DB=>MWB,8.3887605986E-002,0.1816153978,Pass,Pass,0.2591124532,1.2341320728,Pass,Pass
 Warmup Convergence Information,THERMAL ZONE 8,SizingPeriod: SAN FRANCISCO INTL AP ANN CLG 1% CONDNS DB=>MWB,8.3926516093E-002,0.1414266536,Pass,Pass,0.2164179660,0.7385448628,Pass,Pass
 Warmup Convergence Information,THERMAL ZONE 22,SizingPeriod: SAN FRANCISCO INTL AP ANN CLG 1% CONDNS DB=>MWB,8.3772524695E-002,0.1386268648,Pass,Pass,6.8557561064E-002,5.2993952260E-002,Pass,Pass
 Warmup Convergence Information,THERMAL ZONE 4,SizingPeriod: SAN FRANCISCO INTL AP ANN CLG 1% CONDNS DB=>MWB,2.1795278415E-002,9.3503826710E-003,Pass,Pass,1.6619317725E-003,6.8608697429E-004,Pass,Pass
 Warmup Convergence Information,THERMAL ZONE 16,SizingPeriod: SAN FRANCISCO INTL AP ANN CLG 1% CONDNS DB=>MWB,8.3665379959E-002,0.1449599086,Pass,Pass,0.1321127342,0.3197699281,Pass,Pass
 Warmup Convergence Information,THERMAL ZONE 13,SizingPeriod: SAN FRANCISCO INTL AP ANN CLG 1% CONDNS DB=>MWB,4.2018958951E-002,4.7064047869E-002,Pass,Pass,0.3736421351,2.4247501559,Pass,Pass
 Warmup Convergence Information,THERMAL ZONE 10,SizingPeriod: SAN FRANCISCO INTL AP ANN CLG 1% CONDNS DB=>MWB,3.5901807614E-002,4.4123303004E-002,Pass,Pass,0.2531568159,0.9418428024,Pass,Pass
 Warmup Convergence Information,THERMAL ZONE 6,SizingPeriod: SAN FRANCISCO INTL AP ANN CLG 1% CONDNS DB=>MWB,8.3780979792E-002,0.1472954608,Pass,Pass,0.1695035398,0.4976729983,Pass,Pass
 Warmup Convergence Information,THERMAL ZONE 15,SizingPeriod: SAN FRANCISCO INTL AP ANN CLG 1% CONDNS DB=>MWB,2.3043480939E-002,1.1122810241E-002,Pass,Pass,1.8407463733E-003,8.4866069714E-004,Pass,Pass
 Warmup Convergence Information,THERMAL ZONE 14,SizingPeriod: SAN FRANCISCO INTL AP ANN CLG 1% CONDNS DB=>MWB,8.3676920464E-002,0.1208932026,Pass,Pass,8.1159186941E-002,7.5425451903E-002,Pass,Pass
 Warmup Convergence Information,THERMAL ZONE 18,SizingPeriod: SAN FRANCISCO INTL AP ANN CLG 1% CONDNS DB=>MWB,8.3734666862E-002,0.1445260259,Pass,Pass,0.1225690372,0.2701809464,Pass,Pass
 Warmup Convergence Information,THERMAL ZONE 24,SizingPeriod: SAN FRANCISCO INTL AP ANN CLG 1% CONDNS DB=>MWB,8.3723654157E-002,0.1429505175,Pass,Pass,0.1352722170,0.2978558585,Pass,Pass
 Warmup Convergence Information,THERMAL ZONE 2,SizingPeriod: SAN FRANCISCO INTL AP ANN CLG 1% CONDNS DB=>MWB,8.4068484366E-002,0.2098486287,Pass,Pass,0.2720048747,0.7089990914,Pass,Pass
 Warmup Convergence Information,THERMAL ZONE 7,SizingPeriod: SAN FRANCISCO INTL AP ANN CLG 1% CONDNS DB=>MWB,8.7392686226E-004,8.0043909773E-004,Pass,Pass,0.2485853047,0.9072135611,Pass,Pass
 Warmup Convergence Information,THERMAL ZONE 20,SizingPeriod: SAN FRANCISCO INTL AP ANN CLG 1% CONDNS DB=>MWB,8.3662259628E-002,0.1245053924,Pass,Pass,0.4013021877,2.1087032317,Pass,Pass
 Warmup Convergence Information,THERMAL ZONE 5,SizingPeriod: SAN FRANCISCO INTL AP ANN CLG 1% CONDNS DB=>MWB,2.3920504478E-002,1.0582703321E-002,Pass,Pass,1.8504933230E-003,7.8523616320E-004,Pass,Pass
 Warmup Convergence Information,THERMAL ZONE 9,SizingPeriod: SAN FRANCISCO INTL AP ANN CLG 1% CONDNS DB=>MWB,2.6235689857E-002,1.1838828607E-002,Pass,Pass,2.2099027066E-003,9.6228096490E-004,Pass,Pass
 Warmup Convergence Information,THERMAL ZONE 23,SizingPeriod: SAN FRANCISCO INTL AP ANN CLG 1% CONDNS DB=>MWB,3.1167116368E-002,4.5241817184E-002,Pass,Pass,0.2574425986,0.9909818832,Pass,Pass
 Warmup Convergence Information,THERMAL ZONE 11,SizingPeriod: SAN FRANCISCO INTL AP ANN CLG 1% CONDNS DB=>MWB,8.3652909732E-002,0.1209861406,Pass,Pass,8.9800650762E-002,9.8175090321E-002,Pass,Pass
 Warmup Convergence Information,THERMAL ZONE 21,SizingPeriod: SAN FRANCISCO INTL AP ANN CLG 1% CONDNS DB=>MWB,8.3655767581E-002,0.1198691285,Pass,Pass,0.4734126306,2.6364355074,Pass,Pass
 Warmup Convergence Information,THERMAL ZONE 1,SizingPeriod: SAN FRANCISCO INTL AP ANN CLG 1% CONDNS DB=>MWB,1.8214398083E-003,3.6455950666E-003,Pass,Pass,1.3509876565E-002,1.0298139609E-002,Pass,Pass
 Warmup Convergence Information,THERMAL ZONE 25,SizingPeriod: SAN FRANCISCO INTL AP ANN CLG 1% CONDNS DB=>MWB,8.3804567171E-002,0.1614308649,Pass,Pass,0.1911052693,0.4770575194,Pass,Pass
 Warmup Convergence Information,THERMAL ZONE 19,SizingPeriod: SAN FRANCISCO INTL AP ANN CLG 1% CONDNS DB=>MWB,8.3746164024E-002,0.1385140716,Pass,Pass,6.6227598835E-002,5.0832145329E-002,Pass,Pass
 Warmup Convergence Information,THERMAL ZONE 17,SizingPeriod: SAN FRANCISCO INTL AP ANN CLG 1% CONDNS DB=>MWB,4.0732020041E-002,4.7314856280E-002,Pass,Pass,0.1932503327,0.6038825504,Pass,Pass
Environment,SAN FRANCISCO INTL AP ANN CLG 2% CONDNS DB=>MWB,SizingPeriod:DesignDay,08/21,08/21,SummerDesignDay,1,N/A,N/A,N/A,N/A,N/A,N/A
Environment:Daylight Saving,No,SizingPeriod:DesignDay
Environment:Design Day Data,23.60,8.50,DefaultMultipliers,101301,310,5.9,0.00,No ,No 
Environment:Design_Day_Misc,233,1106.3,0.2000,0.1216,1.0,-3.33,12.4,ASHRAETau
Environment:WarmupDays,  6
 Warmup Convergence Information,THERMAL ZONE 12,SizingPeriod: SAN FRANCISCO INTL AP ANN CLG 2% CONDNS DB=>MWB,8.3963987459E-002,0.1457017219,Pass,Pass,0.3976016833,2.1902393286,Pass,Pass
 Warmup Convergence Information,THERMAL ZONE 3,SizingPeriod: SAN FRANCISCO INTL AP ANN CLG 2% CONDNS DB=>MWB,8.4034600785E-002,0.1806555682,Pass,Pass,0.2017739463,0.6888839621,Pass,Pass
 Warmup Convergence Information,THERMAL ZONE 8,SizingPeriod: SAN FRANCISCO INTL AP ANN CLG 2% CONDNS DB=>MWB,8.3916244814E-002,0.1457527866,Pass,Pass,0.2249537134,0.5450238731,Pass,Pass
 Warmup Convergence Information,THERMAL ZONE 22,SizingPeriod: SAN FRANCISCO INTL AP ANN CLG 2% CONDNS DB=>MWB,8.3962728837E-002,0.1438505250,Pass,Pass,0.1788804632,0.3821209287,Pass,Pass
 Warmup Convergence Information,THERMAL ZONE 4,SizingPeriod: SAN FRANCISCO INTL AP ANN CLG 2% CONDNS DB=>MWB,2.2018054103E-002,9.1543332583E-003,Pass,Pass,1.7360861760E-003,6.8088211836E-004,Pass,Pass
 Warmup Convergence Information,THERMAL ZONE 16,SizingPeriod: SAN FRANCISCO INTL AP ANN CLG 2% CONDNS DB=>MWB,8.3900271619E-002,0.1409546993,Pass,Pass,0.1824822521,0.6202158568,Pass,Pass
 Warmup Convergence Information,THERMAL ZONE 13,SizingPeriod: SAN FRANCISCO INTL AP ANN CLG 2% CONDNS DB=>MWB,2.8609100801E-002,4.4153379029E-002,Pass,Pass,0.3915912819,2.2230231293,Pass,Pass
 Warmup Convergence Information,THERMAL ZONE 10,SizingPeriod: SAN FRANCISCO INTL AP ANN CLG 2% CONDNS DB=>MWB,2.1236495212E-002,3.8803415893E-002,Pass,Pass,0.4116123040,1.9077791077,Pass,Pass
 Warmup Convergence Information,THERMAL ZONE 6,SizingPeriod: SAN FRANCISCO INTL AP ANN CLG 2% CONDNS DB=>MWB,8.3839196963E-002,0.1428805620,Pass,Pass,0.2204437017,0.7747305492,Pass,Pass
 Warmup Convergence Information,THERMAL ZONE 15,SizingPeriod: SAN FRANCISCO INTL AP ANN CLG 2% CONDNS DB=>MWB,2.3017108488E-002,1.0220228727E-002,Pass,Pass,1.9227053659E-003,8.1605611992E-004,Pass,Pass
 Warmup Convergence Information,THERMAL ZONE 14,SizingPeriod: SAN FRANCISCO INTL AP ANN CLG 2% CONDNS DB=>MWB,8.3720523315E-002,0.1218101212,Pass,Pass,0.1715268725,0.3843539061,Pass,Pass
 Warmup Convergence Information,THERMAL ZONE 18,SizingPeriod: SAN FRANCISCO INTL AP ANN CLG 2% CONDNS DB=>MWB,8.3912164184E-002,0.1403015885,Pass,Pass,0.1520172252,0.3756531803,Pass,Pass
 Warmup Convergence Information,THERMAL ZONE 24,SizingPeriod: SAN FRANCISCO INTL AP ANN CLG 2% CONDNS DB=>MWB,8.3854732501E-002,0.1371485553,Pass,Pass,0.1821515942,0.5975654708,Pass,Pass
 Warmup Convergence Information,THERMAL ZONE 2,SizingPeriod: SAN FRANCISCO INTL AP ANN CLG 2% CONDNS DB=>MWB,8.3965500267E-002,0.2112525058,Pass,Pass,0.5866670108,3.3197708174,Pass,Pass
 Warmup Convergence Information,THERMAL ZONE 7,SizingPeriod: SAN FRANCISCO INTL AP ANN CLG 2% CONDNS DB=>MWB,8.9438232527E-004,1.0632412054E-003,Pass,Pass,0.3431381759,0.9121233393,Pass,Pass
 Warmup Convergence Information,THERMAL ZONE 20,SizingPeriod: SAN FRANCISCO INTL AP ANN CLG 2% CONDNS DB=>MWB,8.3762632041E-002,0.1247167640,Pass,Pass,0.8220102482,6.6577519845,Pass,Pass
 Warmup Convergence Information,THERMAL ZONE 5,SizingPeriod: SAN FRANCISCO INTL AP ANN CLG 2% CONDNS DB=>MWB,2.4009085073E-002,1.0264893397E-002,Pass,Pass,1.9096697181E-003,7.7001237995E-004,Pass,Pass
 Warmup Convergence Information,THERMAL ZONE 9,SizingPeriod: SAN FRANCISCO INTL AP ANN CLG 2% CONDNS DB=>MWB,2.1663048477E-002,1.4635847759E-002,Pass,Pass,2.6434367185E-002,5.2051468023E-002,Pass,Pass
 Warmup Convergence Information,THERMAL ZONE 23,SizingPeriod: SAN FRANCISCO INTL AP ANN CLG 2% CONDNS DB=>MWB,2.0123429132E-002,3.7547686853E-002,Pass,Pass,0.7312211065,5.4018577749,Pass,Pass
 Warmup Convergence Information,THERMAL ZONE 11,SizingPeriod: SAN FRANCISCO INTL AP ANN CLG 2% CONDNS DB=>MWB,8.3697193916E-002,0.1219184799,Pass,Pass,0.3176503200,1.6320509357,Pass,Pass
 Warmup Convergence Information,THERMAL ZONE 21,SizingPeriod: SAN FRANCISCO INTL AP ANN CLG 2% CONDNS DB=>MWB,8.3762419980E-002,0.1209204464,Pass,Pass,0.2510718905,0.9131473175,Pass,Pass
 Warmup Convergence Information,THERMAL ZONE 1,SizingPeriod: SAN FRANCISCO INTL AP ANN CLG 2% CONDNS DB=>MWB,3.4175892507E-003,5.9037654109E-003,Pass,Pass,1.2050504693E-002,1.0410468028E-002,Pass,Pass
 Warmup Convergence Information,THERMAL ZONE 25,SizingPeriod: SAN FRANCISCO INTL AP ANN CLG 2% CONDNS DB=>MWB,8.3899489787E-002,0.1623157393,Pass,Pass,0.1980214068,0.5434716239,Pass,Pass
 Warmup Convergence Information,THERMAL ZONE 19,SizingPeriod: SAN FRANCISCO INTL AP ANN CLG 2% CONDNS DB=>MWB,8.3866404541E-002,0.1436208286,Pass,Pass,0.1706939320,0.3259003134,Pass,Pass
 Warmup Convergence Information,THERMAL ZONE 17,SizingPeriod: SAN FRANCISCO INTL AP ANN CLG 2% CONDNS DB=>MWB,2.8250369726E-002,4.4187932888E-002,Pass,Pass,0.1932046579,0.5176028432,Pass,Pass
Environment,SAN FRANCISCO INTL AP ANN CLG 1% CONDNS WB=>MDB,SizingPeriod:DesignDay,08/21,08/21,SummerDesignDay,1,N/A,N/A,N/A,N/A,N/A,N/A
Environment:Daylight Saving,No,SizingPeriod:DesignDay
Environment:Design Day Data,23.90,8.50,DefaultMultipliers,101301,310,5.9,0.00,No ,No 
Environment:Design_Day_Misc,233,1106.3,0.2000,0.1216,1.0,-3.33,12.4,ASHRAETau
Environment:WarmupDays,  9
 Warmup Convergence Information,THERMAL ZONE 12,SizingPeriod: SAN FRANCISCO INTL AP ANN CLG 1% CONDNS WB=>MDB,8.3947403667E-002,0.1445795057,Pass,Pass,0.1949411472,0.4415846977,Pass,Pass
 Warmup Convergence Information,THERMAL ZONE 3,SizingPeriod: SAN FRANCISCO INTL AP ANN CLG 1% CONDNS WB=>MDB,8.3888887254E-002,0.1815287915,Pass,Pass,0.1566935700,0.3880540061,Pass,Pass
 Warmup Convergence Information,THERMAL ZONE 8,SizingPeriod: SAN FRANCISCO INTL AP ANN CLG 1% CONDNS WB=>MDB,8.3851880111E-002,0.1457915672,Pass,Pass,0.2358478288,0.6060091325,Pass,Pass
 Warmup Convergence Information,THERMAL ZONE 22,SizingPeriod: SAN FRANCISCO INTL AP ANN CLG 1% CONDNS WB=>MDB,8.3876523618E-002,0.1434428265,Pass,Pass,0.1623353559,0.3684060933,Pass,Pass
 Warmup Convergence Information,THERMAL ZONE 4,SizingPeriod: SAN FRANCISCO INTL AP ANN CLG 1% CONDNS WB=>MDB,2.1971676413E-002,9.1032623672E-003,Pass,Pass,1.7191121575E-003,6.6978452327E-004,Pass,Pass
 Warmup Convergence Information,THERMAL ZONE 16,SizingPeriod: SAN FRANCISCO INTL AP ANN CLG 1% CONDNS WB=>MDB,8.3790346434E-002,0.1422372722,Pass,Pass,0.1386647147,0.3112615093,Pass,Pass
 Warmup Convergence Information,THERMAL ZONE 13,SizingPeriod: SAN FRANCISCO INTL AP ANN CLG 1% CONDNS WB=>MDB,3.0985167744E-002,4.5040972373E-002,Pass,Pass,1.5987701426,13.6040998002,Pass,Pass
 Warmup Convergence Information,THERMAL ZONE 10,SizingPeriod: SAN FRANCISCO INTL AP ANN CLG 1% CONDNS WB=>MDB,2.3789784000E-002,4.0291015777E-002,Pass,Pass,0.5691216022,2.9694021966,Pass,Pass
 Warmup Convergence Information,THERMAL ZONE 6,SizingPeriod: SAN FRANCISCO INTL AP ANN CLG 1% CONDNS WB=>MDB,8.3851357695E-002,0.1435953910,Pass,Pass,0.2467884766,1.0993868868,Pass,Pass
 Warmup Convergence Information,THERMAL ZONE 15,SizingPeriod: SAN FRANCISCO INTL AP ANN CLG 1% CONDNS WB=>MDB,2.3038317805E-002,1.0309018939E-002,Pass,Pass,1.9052419957E-003,8.1766468777E-004,Pass,Pass
 Warmup Convergence Information,THERMAL ZONE 14,SizingPeriod: SAN FRANCISCO INTL AP ANN CLG 1% CONDNS WB=>MDB,8.3794493769E-002,0.1218132173,Pass,Pass,0.2750079518,1.1918793994,Pass,Pass
 Warmup Convergence Information,THERMAL ZONE 18,SizingPeriod: SAN FRANCISCO INTL AP ANN CLG 1% CONDNS WB=>MDB,8.3857876398E-002,0.1416826591,Pass,Pass,0.2534260319,1.3118439950,Pass,Pass
 Warmup Convergence Information,THERMAL ZONE 24,SizingPeriod: SAN FRANCISCO INTL AP ANN CLG 1% CONDNS WB=>MDB,8.3821948739E-002,0.1378234620,Pass,Pass,0.1816180187,0.6242588304,Pass,Pass
 Warmup Convergence Information,THERMAL ZONE 2,SizingPeriod: SAN FRANCISCO INTL AP ANN CLG 1% CONDNS WB=>MDB,8.4148900172E-002,0.2110681555,Pass,Pass,0.5281809774,2.5198227160,Pass,Pass
 Warmup Convergence Information,THERMAL ZONE 7,SizingPeriod: SAN FRANCISCO INTL AP ANN CLG 1% CONDNS WB=>MDB,9.6871006805E-004,9.4497179050E-004,Pass,Pass,0.2846985956,0.8875606383,Pass,Pass
 Warmup Convergence Information,THERMAL ZONE 20,SizingPeriod: SAN FRANCISCO INTL AP ANN CLG 1% CONDNS WB=>MDB,8.3753555797E-002,0.1247236027,Pass,Pass,0.3172150273,1.6309884178,Pass,Pass
 Warmup Convergence Information,THERMAL ZONE 5,SizingPeriod: SAN FRANCISCO INTL AP ANN CLG 1% CONDNS WB=>MDB,2.3994249539E-002,1.0262117214E-002,Pass,Pass,1.8969421282E-003,7.6174592812E-004,Pass,Pass
 Warmup Convergence Information,THERMAL ZONE 9,SizingPeriod: SAN FRANCISCO INTL AP ANN CLG 1% CONDNS WB=>MDB,2.2661822334E-002,1.4301893341E-002,Pass,Pass,2.0657177858E-002,4.4103636119E-002,Pass,Pass
 Warmup Convergence Information,THERMAL ZONE 23,SizingPeriod: SAN FRANCISCO INTL AP ANN CLG 1% CONDNS WB=>MDB,2.2138893828E-002,4.0360524792E-002,Pass,Pass,0.1954052831,0.4724502891,Pass,Pass
 Warmup Convergence Information,THERMAL ZONE 11,SizingPeriod: SAN FRANCISCO INTL AP ANN CLG 1% CONDNS WB=>MDB,8.3710941064E-002,0.1220966331,Pass,Pass,0.2448325905,0.8155135727,Pass,Pass
 Warmup Convergence Information,THERMAL ZONE 21,SizingPeriod: SAN FRANCISCO INTL AP ANN CLG 1% CONDNS WB=>MDB,8.3770329928E-002,0.1203410936,Pass,Pass,0.2394589533,1.0281546261,Pass,Pass
 Warmup Convergence Information,THERMAL ZONE 1,SizingPeriod: SAN FRANCISCO INTL AP ANN CLG 1% CONDNS WB=>MDB,3.1588657465E-003,5.6040147336E-003,Pass,Pass,1.2270693253E-002,1.0338963686E-002,Pass,Pass
[...]
 Warmup Convergence Information,THERMAL ZONE 3,SizingPeriod: SAN FRANCISCO INTL AP ANN CLG .4% CONDNS DB=>MWB,8.3796291882E-002,0.1799626446,Pass,Pass,0.2705065283,1.1190436623,Pass,Pass
 Warmup Convergence Information,THERMAL ZONE 8,SizingPeriod: SAN FRANCISCO INTL AP ANN CLG .4% CONDNS DB=>MWB,8.3699547342E-002,0.1374625772,Pass,Pass,6.3696134761E-002,5.0731512687E-002,Pass,Pass
 Warmup Convergence Information,THERMAL ZONE 22,SizingPeriod: SAN FRANCISCO INTL AP ANN CLG .4% CONDNS DB=>MWB,8.3620079371E-002,0.1331415326,Pass,Pass,5.0292476452E-002,4.4774392919E-002,Pass,Pass
 Warmup Convergence Information,THERMAL ZONE 4,SizingPeriod: SAN FRANCISCO INTL AP ANN CLG .4% CONDNS DB=>MWB,2.1504682208E-002,8.8935822744E-003,Pass,Pass,1.5822016292E-003,6.2718818877E-004,Pass,Pass
 Warmup Convergence Information,THERMAL ZONE 16,SizingPeriod: SAN FRANCISCO INTL AP ANN CLG .4% CONDNS DB=>MWB,8.3610383378E-002,0.1446189628,Pass,Pass,5.6196220442E-002,6.0933030508E-002,Pass,Pass
 Warmup Convergence Information,THERMAL ZONE 13,SizingPeriod: SAN FRANCISCO INTL AP ANN CLG .4% CONDNS DB=>MWB,5.9314334323E-002,4.5214665475E-002,Pass,Pass,2.9329813707E-002,5.2368612386E-002,Pass,Pass
 Warmup Convergence Information,THERMAL ZONE 10,SizingPeriod: SAN FRANCISCO INTL AP ANN CLG .4% CONDNS DB=>MWB,5.4945721005E-002,4.4200895627E-002,Pass,Pass,3.4387848123E-002,5.5459566750E-002,Pass,Pass
 Warmup Convergence Information,THERMAL ZONE 6,SizingPeriod: SAN FRANCISCO INTL AP ANN CLG .4% CONDNS DB=>MWB,8.3675004485E-002,0.1469631572,Pass,Pass,0.1439245566,0.4476663149,Pass,Pass
 Warmup Convergence Information,THERMAL ZONE 15,SizingPeriod: SAN FRANCISCO INTL AP ANN CLG .4% CONDNS DB=>MWB,2.3130813537E-002,1.1276813494E-002,Pass,Pass,1.7644387818E-003,8.2362576357E-004,Pass,Pass
 Warmup Convergence Information,THERMAL ZONE 14,SizingPeriod: SAN FRANCISCO INTL AP ANN CLG .4% CONDNS DB=>MWB,8.3465657284E-002,0.1205985983,Pass,Pass,4.9080543946E-002,4.0164008016E-002,Pass,Pass
 Warmup Convergence Information,THERMAL ZONE 18,SizingPeriod: SAN FRANCISCO INTL AP ANN CLG .4% CONDNS DB=>MWB,8.3538970944E-002,0.1446096509,Pass,Pass,5.3221917755E-002,5.8079599277E-002,Pass,Pass
 Warmup Convergence Information,THERMAL ZONE 24,SizingPeriod: SAN FRANCISCO INTL AP ANN CLG .4% CONDNS DB=>MWB,8.3598734966E-002,0.1426977893,Pass,Pass,5.4381517397E-002,6.0024259901E-002,Pass,Pass
 Warmup Convergence Information,THERMAL ZONE 2,SizingPeriod: SAN FRANCISCO INTL AP ANN CLG .4% CONDNS DB=>MWB,8.4058530795E-002,0.2040640096,Pass,Pass,0.3399669760,1.0748844639,Pass,Pass
 Warmup Convergence Information,THERMAL ZONE 7,SizingPeriod: SAN FRANCISCO INTL AP ANN CLG .4% CONDNS DB=>MWB,6.5421120293E-004,6.7270304591E-004,Pass,Pass,0.7296086631,5.2990169160,Pass,Pass
 Warmup Convergence Information,THERMAL ZONE 20,SizingPeriod: SAN FRANCISCO INTL AP ANN CLG .4% CONDNS DB=>MWB,8.3528276329E-002,0.1231121835,Pass,Pass,7.3586974321E-002,6.4159975599E-002,Pass,Pass
 Warmup Convergence Information,THERMAL ZONE 5,SizingPeriod: SAN FRANCISCO INTL AP ANN CLG .4% CONDNS DB=>MWB,2.3846578333E-002,1.0075596508E-002,Pass,Pass,1.7908632822E-003,7.2044468546E-004,Pass,Pass
 Warmup Convergence Information,THERMAL ZONE 9,SizingPeriod: SAN FRANCISCO INTL AP ANN CLG .4% CONDNS DB=>MWB,2.6284005792E-002,1.1419347451E-002,Pass,Pass,2.1661190241E-003,8.9054135734E-004,Pass,Pass
 Warmup Convergence Information,THERMAL ZONE 23,SizingPeriod: SAN FRANCISCO INTL AP ANN CLG .4% CONDNS DB=>MWB,4.5558545156E-002,4.8359246775E-002,Pass,Pass,0.1555799334,0.4577984624,Pass,Pass
 Warmup Convergence Information,THERMAL ZONE 11,SizingPeriod: SAN FRANCISCO INTL AP ANN CLG .4% CONDNS DB=>MWB,8.3580612323E-002,0.1205887649,Pass,Pass,5.1199497146E-002,4.1841844049E-002,Pass,Pass
 Warmup Convergence Information,THERMAL ZONE 21,SizingPeriod: SAN FRANCISCO INTL AP ANN CLG .4% CONDNS DB=>MWB,8.3548668146E-002,0.1188979823,Pass,Pass,5.0919032681E-002,4.3243130318E-002,Pass,Pass
 Warmup Convergence Information,THERMAL ZONE 1,SizingPeriod: SAN FRANCISCO INTL AP ANN CLG .4% CONDNS DB=>MWB,6.3743375637E-004,7.6799837810E-004,Pass,Pass,1.5016362214E-002,1.0489825569E-002,Pass,Pass
 Warmup Convergence Information,THERMAL ZONE 25,SizingPeriod: SAN FRANCISCO INTL AP ANN CLG .4% CONDNS DB=>MWB,8.3763859262E-002,0.1614486485,Pass,Pass,0.2494003585,0.7986943651,Pass,Pass
 Warmup Convergence Information,THERMAL ZONE 19,SizingPeriod: SAN FRANCISCO INTL AP ANN CLG .4% CONDNS DB=>MWB,8.3661948777E-002,0.1325195502,Pass,Pass,4.8906552219E-002,4.4307437085E-002,Pass,Pass
 Warmup Convergence Information,THERMAL ZONE 17,SizingPeriod: SAN FRANCISCO INTL AP ANN CLG .4% CONDNS DB=>MWB,5.7142924368E-002,4.6310714294E-002,Pass,Pass,3.8159142480E-002,6.4836875376E-002,Pass,Pass
Environment,SAN FRANCISCO INTL AP ANN CLG .4% CONDNS DP=>MDB,SizingPeriod:DesignDay,08/21,08/21,SummerDesignDay,1,N/A,N/A,N/A,N/A,N/A,N/A
Environment:Daylight Saving,No,SizingPeriod:DesignDay
Environment:Design Day Data,19.90,8.50,DefaultMultipliers,101301,310,5.9,0.00,No ,No 
Environment:Design_Day_Misc,233,1106.3,0.2000,0.1216,1.0,-3.33,12.4,ASHRAETau
Environment:WarmupDays,  8
 Warmup Convergence Information,THERMAL ZONE 12,SizingPeriod: SAN FRANCISCO INTL AP ANN CLG .4% CONDNS DP=>MDB,8.4096873742E-002,0.1524440059,Pass,Pass,0.4279152613,1.7769296279,Pass,Pass
 Warmup Convergence Information,THERMAL ZONE 3,SizingPeriod: SAN FRANCISCO INTL AP ANN CLG .4% CONDNS DP=>MDB,8.4140534074E-002,0.1850278369,Pass,Pass,0.6031274245,4.3516126969,Pass,Pass
 Warmup Convergence Information,THERMAL ZONE 8,SizingPeriod: SAN FRANCISCO INTL AP ANN CLG .4% CONDNS DP=>MDB,8.4040166279E-002,0.1494278772,Pass,Pass,1.8132512889,15.6577209623,Pass,Pass
 Warmup Convergence Information,THERMAL ZONE 22,SizingPeriod: SAN FRANCISCO INTL AP ANN CLG .4% CONDNS DP=>MDB,8.4018402900E-002,0.1486684058,Pass,Pass,0.2130636156,0.4696468572,Pass,Pass
 Warmup Convergence Information,THERMAL ZONE 4,SizingPeriod: SAN FRANCISCO INTL AP ANN CLG .4% CONDNS DP=>MDB,2.2214041681E-002,9.2259439816E-003,Pass,Pass,1.8550975802E-003,7.3516751918E-004,Pass,Pass
 Warmup Convergence Information,THERMAL ZONE 16,SizingPeriod: SAN FRANCISCO INTL AP ANN CLG .4% CONDNS DP=>MDB,8.4103372984E-002,0.1348378990,Pass,Pass,0.1756605172,0.4493811256,Pass,Pass
 Warmup Convergence Information,THERMAL ZONE 13,SizingPeriod: SAN FRANCISCO INTL AP ANN CLG .4% CONDNS DP=>MDB,8.0548707632E-003,1.6002549033E-002,Pass,Pass,0.2271143746,0.6397882015,Pass,Pass
 Warmup Convergence Information,THERMAL ZONE 10,SizingPeriod: SAN FRANCISCO INTL AP ANN CLG .4% CONDNS DP=>MDB,5.7840540041E-004,7.0917996893E-004,Pass,Pass,0.9361114773,5.7213813273,Pass,Pass
 Warmup Convergence Information,THERMAL ZONE 6,SizingPeriod: SAN FRANCISCO INTL AP ANN CLG .4% CONDNS DP=>MDB,8.3958045420E-002,0.1374319354,Pass,Pass,0.1828476796,0.4946126867,Pass,Pass
 Warmup Convergence Information,THERMAL ZONE 15,SizingPeriod: SAN FRANCISCO INTL AP ANN CLG .4% CONDNS DP=>MDB,1.1951168799E-002,1.2981592138E-002,Pass,Pass,4.9044037822E-002,5.9361816019E-002,Pass,Pass
 Warmup Convergence Information,THERMAL ZONE 14,SizingPeriod: SAN FRANCISCO INTL AP ANN CLG .4% CONDNS DP=>MDB,8.3905527697E-002,0.1231029582,Pass,Pass,0.2028718032,0.6040530206,Pass,Pass
 Warmup Convergence Information,THERMAL ZONE 18,SizingPeriod: SAN FRANCISCO INTL AP ANN CLG .4% CONDNS DP=>MDB,8.4031812047E-002,0.1340396260,Pass,Pass,0.1713310177,0.4075917438,Pass,Pass
 Warmup Convergence Information,THERMAL ZONE 24,SizingPeriod: SAN FRANCISCO INTL AP ANN CLG .4% CONDNS DP=>MDB,8.3900288355E-002,0.1306521329,Pass,Pass,0.1757313170,0.4506946398,Pass,Pass
 Warmup Convergence Information,THERMAL ZONE 2,SizingPeriod: SAN FRANCISCO INTL AP ANN CLG .4% CONDNS DP=>MDB,8.4280227033E-002,0.2127052810,Pass,Pass,0.1705235683,0.4572811012,Pass,Pass
 Warmup Convergence Information,THERMAL ZONE 7,SizingPeriod: SAN FRANCISCO INTL AP ANN CLG .4% CONDNS DP=>MDB,1.0093503711E-003,1.1357977357E-003,Pass,Pass,6.8063605596E-002,5.9674935707E-002,Pass,Pass
 Warmup Convergence Information,THERMAL ZONE 20,SizingPeriod: SAN FRANCISCO INTL AP ANN CLG .4% CONDNS DP=>MDB,8.3740792216E-002,0.1263937215,Pass,Pass,0.1995489624,0.6224651647,Pass,Pass
 Warmup Convergence Information,THERMAL ZONE 5,SizingPeriod: SAN FRANCISCO INTL AP ANN CLG .4% CONDNS DP=>MDB,2.3816849993E-002,1.0191698235E-002,Pass,Pass,1.9869607371E-003,8.0903978595E-004,Pass,Pass
 Warmup Convergence Information,THERMAL ZONE 9,SizingPeriod: SAN FRANCISCO INTL AP ANN CLG .4% CONDNS DP=>MDB,1.4260431373E-002,1.5332429282E-002,Pass,Pass,0.1823642943,0.4706936831,Pass,Pass
 Warmup Convergence Information,THERMAL ZONE 23,SizingPeriod: SAN FRANCISCO INTL AP ANN CLG .4% CONDNS DP=>MDB,1.3276889221E-003,2.8640700390E-003,Pass,Pass,0.3287517923,1.2432101943,Pass,Pass
 Warmup Convergence Information,THERMAL ZONE 11,SizingPeriod: SAN FRANCISCO INTL AP ANN CLG .4% CONDNS DP=>MDB,8.3874717134E-002,0.1235554972,Pass,Pass,0.2908957394,1.4378057108,Pass,Pass
 Warmup Convergence Information,THERMAL ZONE 21,SizingPeriod: SAN FRANCISCO INTL AP ANN CLG .4% CONDNS DP=>MDB,8.3808293013E-002,0.1223913350,Pass,Pass,0.1769935808,0.3976755196,Pass,Pass
 Warmup Convergence Information,THERMAL ZONE 1,SizingPeriod: SAN FRANCISCO INTL AP ANN CLG .4% CONDNS DP=>MDB,5.7862492830E-003,8.7729307916E-003,Pass,Pass,1.0058853148E-002,1.0196976361E-002,Pass,Pass
 Warmup Convergence Information,THERMAL ZONE 25,SizingPeriod: SAN FRANCISCO INTL AP ANN CLG .4% CONDNS DP=>MDB,8.4210467846E-002,0.1620355182,Pass,Pass,0.3230581961,1.3753642182,Pass,Pass
 Warmup Convergence Information,THERMAL ZONE 19,SizingPeriod: SAN FRANCISCO INTL AP ANN CLG .4% CONDNS DP=>MDB,8.4013632813E-002,0.1493139934,Pass,Pass,0.2068098573,0.4135647334,Pass,Pass
 Warmup Convergence Information,THERMAL ZONE 17,SizingPeriod: SAN FRANCISCO INTL AP ANN CLG .4% CONDNS DP=>MDB,8.5539936947E-003,1.6720745038E-002,Pass,Pass,0.2089921833,0.5152866349,Pass,Pass
Environment,SAN FRANCISCO INTL AP ANN HTG WIND 99% CONDNS WS=>MCDB,SizingPeriod:DesignDay,01/21,01/21,WinterDesignDay,1,N/A,N/A,N/A,N/A,N/A,N/A
Environment:Daylight Saving,No,SizingPeriod:DesignDay
Environment:Design Day Data,12.20,0.00,DefaultMultipliers,101301,150,11.6,0.00,No ,No 
Environment:Design_Day_Misc, 21,1229.0,0.1415,5.7310E-002,1.0,-11.15,-20.1,ASHRAEClearSky
Environment:WarmupDays,  6
 Warmup Convergence Information,THERMAL ZONE 12,SizingPeriod: SAN FRANCISCO INTL AP ANN HTG WIND 99% CONDNS WS=>MCDB,1.1989739489E-003,1.8055141140E-003,Pass,Pass,1.2900066389E-003,2.3951080691E-003,Pass,Pass
 Warmup Convergence Information,THERMAL ZONE 3,SizingPeriod: SAN FRANCISCO INTL AP ANN HTG WIND 99% CONDNS WS=>MCDB,5.9568937188E-006,4.4344393229E-006,Pass,Pass,6.9182851201E-006,5.0041267697E-006,Pass,Pass
 Warmup Convergence Information,THERMAL ZONE 8,SizingPeriod: SAN FRANCISCO INTL AP ANN HTG WIND 99% CONDNS WS=>MCDB,2.9340481910E-003,9.4924992545E-004,Pass,Pass,5.2513942694E-003,2.1931643102E-003,Pass,Pass
 Warmup Convergence Information,THERMAL ZONE 22,SizingPeriod: SAN FRANCISCO INTL AP ANN HTG WIND 99% CONDNS WS=>MCDB,5.6503467394E-006,4.2476710527E-006,Pass,Pass,9.5980720214E-006,6.9402881895E-006,Pass,Pass
 Warmup Convergence Information,THERMAL ZONE 4,SizingPeriod: SAN FRANCISCO INTL AP ANN HTG WIND 99% CONDNS WS=>MCDB,1.3177091794E-006,9.7360933913E-007,Pass,Pass,8.5672717588E-006,6.3201756730E-006,Pass,Pass
 Warmup Convergence Information,THERMAL ZONE 16,SizingPeriod: SAN FRANCISCO INTL AP ANN HTG WIND 99% CONDNS WS=>MCDB,2.5723541176E-003,1.0851526291E-003,Pass,Pass,3.6724107165E-003,2.4143952536E-003,Pass,Pass
 Warmup Convergence Information,THERMAL ZONE 13,SizingPeriod: SAN FRANCISCO INTL AP ANN HTG WIND 99% CONDNS WS=>MCDB,3.0353301342E-003,1.1695379859E-003,Pass,Pass,4.4134181767E-003,2.5735190414E-003,Pass,Pass
 Warmup Convergence Information,THERMAL ZONE 10,SizingPeriod: SAN FRANCISCO INTL AP ANN HTG WIND 99% CONDNS WS=>MCDB,5.1063710964E-006,3.7506379882E-006,Pass,Pass,7.6137157242E-006,5.5303989536E-006,Pass,Pass
 Warmup Convergence Information,THERMAL ZONE 6,SizingPeriod: SAN FRANCISCO INTL AP ANN HTG WIND 99% CONDNS WS=>MCDB,2.3648749973E-003,1.4631903508E-003,Pass,Pass,4.4936139122E-003,2.8294914576E-003,Pass,Pass
 Warmup Convergence Information,THERMAL ZONE 15,SizingPeriod: SAN FRANCISCO INTL AP ANN HTG WIND 99% CONDNS WS=>MCDB,5.5841781295E-004,3.6984558527E-004,Pass,Pass,5.7602544994E-003,1.8681303562E-003,Pass,Pass
 Warmup Convergence Information,THERMAL ZONE 14,SizingPeriod: SAN FRANCISCO INTL AP ANN HTG WIND 99% CONDNS WS=>MCDB,1.7283176878E-003,1.5035721266E-003,Pass,Pass,2.1875144386E-003,2.4652025786E-003,Pass,Pass
 Warmup Convergence Information,THERMAL ZONE 18,SizingPeriod: SAN FRANCISCO INTL AP ANN HTG WIND 99% CONDNS WS=>MCDB,5.9236974291E-004,1.2548002657E-003,Pass,Pass,7.0807037508E-004,1.7930225449E-003,Pass,Pass
 Warmup Convergence Information,THERMAL ZONE 24,SizingPeriod: SAN FRANCISCO INTL AP ANN HTG WIND 99% CONDNS WS=>MCDB,3.4810635051E-003,5.1040049175E-006,Pass,Pass,7.4648662790E-003,2.8584110769E-005,Pass,Pass
 Warmup Convergence Information,THERMAL ZONE 2,SizingPeriod: SAN FRANCISCO INTL AP ANN HTG WIND 99% CONDNS WS=>MCDB,2.9175092766E-003,1.2546932310E-003,Pass,Pass,2.9949609816E-003,1.9146361880E-003,Pass,Pass
 Warmup Convergence Information,THERMAL ZONE 7,SizingPeriod: SAN FRANCISCO INTL AP ANN HTG WIND 99% CONDNS WS=>MCDB,2.7885058812E-003,7.2792898396E-006,Pass,Pass,4.5929695060E-003,1.2998260753E-005,Pass,Pass
 Warmup Convergence Information,THERMAL ZONE 20,SizingPeriod: SAN FRANCISCO INTL AP ANN HTG WIND 99% CONDNS WS=>MCDB,1.1975539654E-003,1.2304799382E-003,Pass,Pass,1.3723871302E-003,1.7698045125E-003,Pass,Pass
 Warmup Convergence Information,THERMAL ZONE 5,SizingPeriod: SAN FRANCISCO INTL AP ANN HTG WIND 99% CONDNS WS=>MCDB,5.6234634449E-007,4.2239473780E-007,Pass,Pass,8.6089309136E-006,6.2931957871E-006,Pass,Pass
 Warmup Convergence Information,THERMAL ZONE 9,SizingPeriod: SAN FRANCISCO INTL AP ANN HTG WIND 99% CONDNS WS=>MCDB,1.4964787448E-006,1.1832245306E-006,Pass,Pass,8.5534504135E-006,6.1700754741E-006,Pass,Pass
 Warmup Convergence Information,THERMAL ZONE 23,SizingPeriod: SAN FRANCISCO INTL AP ANN HTG WIND 99% CONDNS WS=>MCDB,4.7754469888E-006,3.3951672357E-006,Pass,Pass,7.7138899327E-006,5.6014729041E-006,Pass,Pass
 Warmup Convergence Information,THERMAL ZONE 11,SizingPeriod: SAN FRANCISCO INTL AP ANN HTG WIND 99% CONDNS WS=>MCDB,4.3982123272E-006,3.1711569048E-006,Pass,Pass,7.3248143744E-006,5.2956736890E-006,Pass,Pass
 Warmup Convergence Information,THERMAL ZONE 21,SizingPeriod: SAN FRANCISCO INTL AP ANN HTG WIND 99% CONDNS WS=>MCDB,1.9307105996E-003,1.0201194074E-003,Pass,Pass,3.9891886208E-003,1.1905675359E-003,Pass,Pass
 Warmup Convergence Information,THERMAL ZONE 1,SizingPeriod: SAN FRANCISCO INTL AP ANN HTG WIND 99% CONDNS WS=>MCDB,2.4329240380E-006,1.8039985179E-006,Pass,Pass,8.1104151854E-006,5.8735799316E-006,Pass,Pass
 Warmup Convergence Information,THERMAL ZONE 25,SizingPeriod: SAN FRANCISCO INTL AP ANN HTG WIND 99% CONDNS WS=>MCDB,6.2404691629E-006,4.5789971308E-006,Pass,Pass,7.2786407619E-006,5.2632217225E-006,Pass,Pass
 Warmup Convergence Information,THERMAL ZONE 19,SizingPeriod: SAN FRANCISCO INTL AP ANN HTG WIND 99% CONDNS WS=>MCDB,3.0450811850E-003,6.6464163419E-006,Pass,Pass,7.3243022194E-003,2.8498398140E-005,Pass,Pass
 Warmup Convergence Information,THERMAL ZONE 17,SizingPeriod: SAN FRANCISCO INTL AP ANN HTG WIND 99% CONDNS WS=>MCDB,4.4919211617E-006,3.3345886953E-006,Pass,Pass,7.7121848655E-006,5.6015226041E-006,Pass,Pass
Environment,RUN PERIOD 1,WeatherFileRunPeriod,01/01,12/31,Thursday,365,Use RunPeriod Specified Day,Yes,Yes,No ,Yes,Yes
Environment:Daylight Saving,Yes,InputFile,03/08,11/01
Environment:WarmupDays,  6
 Warmup Convergence Information,THERMAL ZONE 12,RunPeriod: RUN PERIOD 1,1.6121173377E-003,1.4060893948E-003,Pass,Pass,0.2193837795,0.6268311924,Pass,Pass
 Warmup Convergence Information,THERMAL ZONE 3,RunPeriod: RUN PERIOD 1,1.2149080295E-002,3.6808456603E-002,Pass,Pass,0.2044253067,0.7086228513,Pass,Pass
 Warmup Convergence Information,THERMAL ZONE 8,RunPeriod: RUN PERIOD 1,7.1636340004E-003,2.5209518901E-002,Pass,Pass,0.2163127012,0.5666480937,Pass,Pass
 Warmup Convergence Information,THERMAL ZONE 22,RunPeriod: RUN PERIOD 1,6.2576812661E-003,2.1973628040E-002,Pass,Pass,0.1878494088,0.4280299912,Pass,Pass
 Warmup Convergence Information,THERMAL ZONE 4,RunPeriod: RUN PERIOD 1,3.3170310409E-004,9.5754505972E-004,Pass,Pass,0.3889373897,1.6644055317,Pass,Pass
 Warmup Convergence Information,THERMAL ZONE 16,RunPeriod: RUN PERIOD 1,4.6153934229E-003,1.3522413288E-002,Pass,Pass,0.1997776447,0.6645979170,Pass,Pass
 Warmup Convergence Information,THERMAL ZONE 13,RunPeriod: RUN PERIOD 1,5.6042311017E-003,1.0809807914E-002,Pass,Pass,2.8502360176E-002,2.6166837561E-002,Pass,Pass
 Warmup Convergence Information,THERMAL ZONE 10,RunPeriod: RUN PERIOD 1,4.5284706900E-003,9.0651187788E-003,Pass,Pass,2.4732100544E-002,2.1322770630E-002,Pass,Pass
 Warmup Convergence Information,THERMAL ZONE 6,RunPeriod: RUN PERIOD 1,6.1331746925E-003,1.8658361186E-002,Pass,Pass,0.7523401295,4.9713146334,Pass,Pass
 Warmup Convergence Information,THERMAL ZONE 15,RunPeriod: RUN PERIOD 1,2.7661659652E-004,2.6165899663E-004,Pass,Pass,3.3067525358E-002,2.3684807050E-002,Pass,Pass
 Warmup Convergence Information,THERMAL ZONE 14,RunPeriod: RUN PERIOD 1,8.4126341728E-002,0.1387294545,Pass,Pass,0.2773457850,1.0167672076,Pass,Pass
 Warmup Convergence Information,THERMAL ZONE 18,RunPeriod: RUN PERIOD 1,3.6266339911E-003,9.8028578008E-003,Pass,Pass,0.2282931015,0.8385327992,Pass,Pass
 Warmup Convergence Information,THERMAL ZONE 24,RunPeriod: RUN PERIOD 1,1.5476087416E-003,1.1684958086E-003,Pass,Pass,0.1797130856,0.4806734787,Pass,Pass
 Warmup Convergence Information,THERMAL ZONE 2,RunPeriod: RUN PERIOD 1,1.5214871437E-002,5.0345335695E-002,Pass,Pass,0.1994406840,0.7868146531,Pass,Pass
 Warmup Convergence Information,THERMAL ZONE 7,RunPeriod: RUN PERIOD 1,1.5402744923E-002,2.4385538617E-002,Pass,Pass,1.6783103525E-002,2.1014164711E-002,Pass,Pass
 Warmup Convergence Information,THERMAL ZONE 20,RunPeriod: RUN PERIOD 1,8.4116747754E-002,0.1382801241,Pass,Pass,0.3566199164,1.5268525858,Pass,Pass
 Warmup Convergence Information,THERMAL ZONE 5,RunPeriod: RUN PERIOD 1,2.0998449955E-003,5.7425578669E-003,Pass,Pass,0.2099782988,0.4663823332,Pass,Pass
 Warmup Convergence Information,THERMAL ZONE 9,RunPeriod: RUN PERIOD 1,1.4879955976E-004,1.4706015467E-004,Pass,Pass,1.0410358430,7.8645971840,Pass,Pass
 Warmup Convergence Information,THERMAL ZONE 23,RunPeriod: RUN PERIOD 1,7.1491140438E-003,1.3972918613E-002,Pass,Pass,2.7212599383E-002,2.5446454140E-002,Pass,Pass
 Warmup Convergence Information,THERMAL ZONE 11,RunPeriod: RUN PERIOD 1,8.4395042613E-002,0.1370699483,Pass,Pass,0.2278305942,0.7168874046,Pass,Pass
 Warmup Convergence Information,THERMAL ZONE 21,RunPeriod: RUN PERIOD 1,8.4304534134E-002,0.1402971526,Pass,Pass,0.2086833689,0.5234614964,Pass,Pass
 Warmup Convergence Information,THERMAL ZONE 1,RunPeriod: RUN PERIOD 1,1.1397401999E-002,1.2733844129E-002,Pass,Pass,4.8590865964E-003,6.9829501654E-003,Pass,Pass
 Warmup Convergence Information,THERMAL ZONE 25,RunPeriod: RUN PERIOD 1,8.4633561233E-002,0.1977472745,Pass,Pass,0.4788040175,2.8653032715,Pass,Pass
 Warmup Convergence Information,THERMAL ZONE 19,RunPeriod: RUN PERIOD 1,5.3006735460E-003,1.8247882358E-002,Pass,Pass,0.3477716599,1.8459407315,Pass,Pass
 Warmup Convergence Information,THERMAL ZONE 17,RunPeriod: RUN PERIOD 1,5.7131222451E-003,1.1222038803E-002,Pass,Pass,2.8740294268E-002,2.6571102787E-002,Pass,Pass
! <Program Control Information:Threads/Parallel Sims>, Threading Supported,Maximum Number of Threads, Env Set Threads (OMP_NUM_THREADS), EP Env Set Threads (EP_OMP_NUM_THREADS), IDF Set Threads, Number of Threads Used (Interior Radiant Exchange), Number Nominal Surfaces, Number Parallel Sims
Program Control:Threads/Parallel Sims, Yes,1, Not Set, Not Set, 1, 1, 170, N/A
End of Data
