Program Version,EnergyPlus-Linux-OMP-32 7.2.0.006, YMD=2013.02.08 19:33
! This file shows details about the branches, nodes, and other
! elements of the flow connections.
! This file is intended for use in "debugging" potential problems
! that may also be detected by the program, but may be more easily
! identified by "eye".
! This file is also intended to support software which draws a
! schematic diagram of the HVAC system.
! ===============================================================
! #Nodes,<Number of Unique Nodes>
 #Nodes,95                  
! <Node>,<NodeNumber>,<Node Name>,<Node Fluid Type>,<# Times Node Referenced After Definition>
 Node,1,NODE 77,Air,4
 Node,2,NODE 67,Air,4
 Node,3,NODE 47,Air,4
 Node,4,NODE 57,Air,4
 Node,5,NODE 72,Air,4
 Node,6,NODE 37,Air,4
 Node,7,NODE 62,Air,4
 Node,8,NODE 42,Air,4
 Node,9,NODE 52,Air,4
 Node,10,NODE 15,Air,4
 Node,11,NODE 11,Air,3
 Node,12,NODE 18,Air,6
 Node,13,NODE 19,Air,6
 Node,14,NODE 20,Air,8
 Node,15,NODE 12,Air,9
 Node,16,NODE 21,Water,2
 Node,17,NODE 27,Water,1
 Node,18,NODE 23,Water,1
 Node,19,NODE 28,Water,1
 Node,20,NODE 29,Water,1
 Node,21,NODE 30,Water,1
 Node,22,NODE 31,Water,1
 Node,23,NODE 22,Water,4
 Node,24,NODE 24,Water,2
 Node,25,PLANT LOOP 1 DEMAND INLET PIPE NODE,Water,1
 Node,26,NODE 26,Water,2
 Node,27,NODE 32,Water,1
 Node,28,NODE 35,Water,1
 Node,29,NODE 36,Water,1
 Node,30,NODE 40,Water,1
 Node,31,NODE 41,Water,1
 Node,32,NODE 45,Water,1
 Node,33,NODE 46,Water,1
 Node,34,NODE 50,Water,1
 Node,35,NODE 51,Water,1
 Node,36,NODE 55,Water,1
 Node,37,NODE 56,Water,1
 Node,38,NODE 60,Water,1
 Node,39,NODE 61,Water,1
 Node,40,NODE 65,Water,1
 Node,41,NODE 66,Water,1
 Node,42,NODE 70,Water,1
 Node,43,NODE 71,Water,1
 Node,44,NODE 75,Water,1
 Node,45,NODE 76,Water,1
 Node,46,NODE 80,Water,1
 Node,47,NODE 81,Water,1
 Node,48,PLANT LOOP 1 DEMAND BYPASS PIPE INLET NODE,Water,1
 Node,49,PLANT LOOP 1 DEMAND BYPASS PIPE OUTLET NODE,Water,1
 Node,50,PLANT LOOP 1 DEMAND OUTLET PIPE NODE,Water,1
 Node,51,NODE 25,Water,2
 Node,52,NODE 16,Air,2
 Node,53,NODE 4,Air,0
 Node,54,NODE 78,Air,1
 Node,55,NODE 5,Air,0
 Node,56,NODE 68,Air,1
 Node,57,NODE 2,Air,0
 Node,58,NODE 48,Air,1
 Node,59,NODE 9,Air,0
 Node,60,NODE 58,Air,1
 Node,61,NODE 6,Air,0
 Node,62,NODE 73,Air,1
 Node,63,NODE 10,Air,0
 Node,64,NODE 38,Air,1
 Node,65,NODE 1,Air,0
 Node,66,NODE 63,Air,1
 Node,67,NODE 8,Air,0
 Node,68,NODE 43,Air,1
 Node,69,NODE 3,Air,0
 Node,70,NODE 53,Air,1
 Node,71,NODE 7,Air,0
 Node,72,NODE 33,Air,1
 Node,73,NODE 13,Air,2
 Node,74,NODE 14,Air,2
 Node,75,NODE 34,Air,1
 Node,76,NODE 39,Air,1
 Node,77,NODE 44,Air,1
 Node,78,NODE 49,Air,1
 Node,79,NODE 54,Air,1
 Node,80,NODE 59,Air,1
 Node,81,NODE 64,Air,1
 Node,82,NODE 69,Air,1
 Node,83,NODE 74,Air,1
 Node,84,NODE 79,Air,1
 Node,85,AIR TERMINAL SINGLE DUCT VAV REHEAT 2 DAMPER OUTLET,Air,1
 Node,86,AIR TERMINAL SINGLE DUCT VAV REHEAT 3 DAMPER OUTLET,Air,1
 Node,87,AIR TERMINAL SINGLE DUCT VAV REHEAT 4 DAMPER OUTLET,Air,1
 Node,88,AIR TERMINAL SINGLE DUCT VAV REHEAT 5 DAMPER OUTLET,Air,1
 Node,89,AIR TERMINAL SINGLE DUCT VAV REHEAT 6 DAMPER OUTLET,Air,1
 Node,90,AIR TERMINAL SINGLE DUCT VAV REHEAT 7 DAMPER OUTLET,Air,1
 Node,91,AIR TERMINAL SINGLE DUCT VAV REHEAT 8 DAMPER OUTLET,Air,1
 Node,92,AIR TERMINAL SINGLE DUCT VAV REHEAT 9 DAMPER OUTLET,Air,1
 Node,93,AIR TERMINAL SINGLE DUCT VAV REHEAT 10 DAMPER OUTLET,Air,1
 Node,94,AIR TERMINAL SINGLE DUCT VAV REHEAT 11 DAMPER OUTLET,Air,1
 Node,95,NODE 17,Air,1
! ===============================================================
! Suspicious nodes have 0 references.  It is normal for some nodes, however.
! Listing nodes with 0 references (culled from previous list):
! <Suspicious Node>,<NodeNumber>,<Node Name>,<Node Fluid Type>,<# Times Node Referenced After Definition>
 Suspicious Node,53,NODE 4,Air,0
 Suspicious Node,55,NODE 5,Air,0
 Suspicious Node,57,NODE 2,Air,0
 Suspicious Node,59,NODE 9,Air,0
 Suspicious Node,61,NODE 6,Air,0
 Suspicious Node,63,NODE 10,Air,0
 Suspicious Node,65,NODE 1,Air,0
 Suspicious Node,67,NODE 8,Air,0
 Suspicious Node,69,NODE 3,Air,0
 Suspicious Node,71,NODE 7,Air,0
! ===============================================================
! <#Branch Lists>,<Number of Branch Lists>
 #Branch Lists,3
! <Branch List>,<Branch List Count>,<Branch List Name>,<Loop Name>,<Loop Type>,<Number of Branches>
! <Branch>,<Branch Count>,<Branch Name>,<Loop Name>,<Loop Type>,<Branch Inlet Node Name>,<Branch Outlet Node Name>
 Branch List,1,BRANCHLIST {733D99A8-8C9D-4A7B-B431-086F70CD0627},AIR LOOP HVAC 1,Air,1
   Branch,1,BRANCH {20314612-2BD0-4735-9E70-5B88155DA9EC},AIR LOOP HVAC 1,Air,NODE 11,NODE 12
 Branch List,2,PLANT LOOP 1 SUPPLY BRANCHES,PLANT LOOP 1,Plant Supply,4
   Branch,1,PLANT LOOP 1 SUPPLY INLET BRANCH,PLANT LOOP 1,Plant Supply,NODE 21,NODE 27
   Branch,2,PLANT LOOP 1 SUPPLY BRANCH 1,PLANT LOOP 1,Plant Supply,NODE 23,NODE 28
   Branch,3,PLANT LOOP 1 SUPPLY BRANCH 2,PLANT LOOP 1,Plant Supply,NODE 29,NODE 30
   Branch,4,PLANT LOOP 1 SUPPLY OUTLET BRANCH,PLANT LOOP 1,Plant Supply,NODE 31,NODE 22
 Branch List,3,PLANT LOOP 1 DEMAND BRANCHES,PLANT LOOP 1,Plant Demand,14
   Branch,1,PLANT LOOP 1 DEMAND INLET BRANCH,PLANT LOOP 1,Plant Demand,NODE 24,PLANT LOOP 1 DEMAND INLET PIPE NODE
   Branch,2,PLANT LOOP 1 DEMAND BRANCH 1,PLANT LOOP 1,Plant Demand,NODE 26,NODE 32
   Branch,3,PLANT LOOP 1 DEMAND BRANCH 2,PLANT LOOP 1,Plant Demand,NODE 35,NODE 36
   Branch,4,PLANT LOOP 1 DEMAND BRANCH 3,PLANT LOOP 1,Plant Demand,NODE 40,NODE 41
   Branch,5,PLANT LOOP 1 DEMAND BRANCH 4,PLANT LOOP 1,Plant Demand,NODE 45,NODE 46
   Branch,6,PLANT LOOP 1 DEMAND BRANCH 5,PLANT LOOP 1,Plant Demand,NODE 50,NODE 51
   Branch,7,PLANT LOOP 1 DEMAND BRANCH 6,PLANT LOOP 1,Plant Demand,NODE 55,NODE 56
   Branch,8,PLANT LOOP 1 DEMAND BRANCH 7,PLANT LOOP 1,Plant Demand,NODE 60,NODE 61
   Branch,9,PLANT LOOP 1 DEMAND BRANCH 8,PLANT LOOP 1,Plant Demand,NODE 65,NODE 66
   Branch,10,PLANT LOOP 1 DEMAND BRANCH 9,PLANT LOOP 1,Plant Demand,NODE 70,NODE 71
   Branch,11,PLANT LOOP 1 DEMAND BRANCH 10,PLANT LOOP 1,Plant Demand,NODE 75,NODE 76
   Branch,12,PLANT LOOP 1 DEMAND BRANCH 11,PLANT LOOP 1,Plant Demand,NODE 80,NODE 81
   Branch,13,PLANT LOOP 1 DEMAND BYPASS BRANCH,PLANT LOOP 1,Plant Demand,PLANT LOOP 1 DEMAND BYPASS PIPE INLET NODE,PLANT LOOP 1 DEMAND BYPASS PIPE OUTLET NODE
   Branch,14,PLANT LOOP 1 DEMAND OUTLET BRANCH,PLANT LOOP 1,Plant Demand,PLANT LOOP 1 DEMAND OUTLET PIPE NODE,NODE 25
! ===============================================================
! <#Supply Air Paths>,<Number of Supply Air Paths>
 #Supply Air Paths,1
! <Supply Air Path>,<Supply Air Path Count>,<Supply Air Path Name>,<AirLoopHVAC Name>
! <#Components on Supply Air Path>,<Number of Components>
! <Supply Air Path Component>,<Component Count>,<Component Type>,<Component Name>,<AirLoopHVAC Name>
! <#Outlet Nodes on Supply Air Path Component>,<Number of Nodes>
! <Supply Air Path Component Nodes>,<Node Count>,<Component Type>,<Component Name>,<Inlet Node Name>,<Outlet Node Name>,<AirLoopHVAC Name>
 Supply Air Path,1,AIRLOOPHVAC:SUPPLYPATH {6A0908C7-32CF-4E5B-BF65-F962F1EF8C7C},AIR LOOP HVAC 1
   #Components on Supply Air Path,1
   Supply Air Path Component,1,AIRLOOPHVAC:ZONESPLITTER,AIR LOOP HVAC ZONE SPLITTER 1,AIR LOOP HVAC 1
     #Outlet Nodes on Supply Air Path Component,10
     Supply Air Path Component Nodes,1,AIRLOOPHVAC:ZONESPLITTER,AIR LOOP HVAC ZONE SPLITTER 1,NODE 13,NODE 34,AIR LOOP HVAC 1
     Supply Air Path Component Nodes,2,AIRLOOPHVAC:ZONESPLITTER,AIR LOOP HVAC ZONE SPLITTER 1,NODE 13,NODE 39,AIR LOOP HVAC 1
     Supply Air Path Component Nodes,3,AIRLOOPHVAC:ZONESPLITTER,AIR LOOP HVAC ZONE SPLITTER 1,NODE 13,NODE 44,AIR LOOP HVAC 1
     Supply Air Path Component Nodes,4,AIRLOOPHVAC:ZONESPLITTER,AIR LOOP HVAC ZONE SPLITTER 1,NODE 13,NODE 49,AIR LOOP HVAC 1
     Supply Air Path Component Nodes,5,AIRLOOPHVAC:ZONESPLITTER,AIR LOOP HVAC ZONE SPLITTER 1,NODE 13,NODE 54,AIR LOOP HVAC 1
     Supply Air Path Component Nodes,6,AIRLOOPHVAC:ZONESPLITTER,AIR LOOP HVAC ZONE SPLITTER 1,NODE 13,NODE 59,AIR LOOP HVAC 1
     Supply Air Path Component Nodes,7,AIRLOOPHVAC:ZONESPLITTER,AIR LOOP HVAC ZONE SPLITTER 1,NODE 13,NODE 64,AIR LOOP HVAC 1
     Supply Air Path Component Nodes,8,AIRLOOPHVAC:ZONESPLITTER,AIR LOOP HVAC ZONE SPLITTER 1,NODE 13,NODE 69,AIR LOOP HVAC 1
     Supply Air Path Component Nodes,9,AIRLOOPHVAC:ZONESPLITTER,AIR LOOP HVAC ZONE SPLITTER 1,NODE 13,NODE 74,AIR LOOP HVAC 1
     Supply Air Path Component Nodes,10,AIRLOOPHVAC:ZONESPLITTER,AIR LOOP HVAC ZONE SPLITTER 1,NODE 13,NODE 79,AIR LOOP HVAC 1
! <#Nodes on Supply Air Path>,<Number of Nodes>
! <Supply Air Path Node>,<Node Type>,<Node Count>,<Node Name>,<AirLoopHVAC Name>
#Nodes on Supply Air Path,11
   Supply Air Path Node,Inlet Node,1,NODE 13,AIR LOOP HVAC 1
   Supply Air Path Node,Outlet Node,2,NODE 34,AIR LOOP HVAC 1
   Supply Air Path Node,Outlet Node,3,NODE 39,AIR LOOP HVAC 1
   Supply Air Path Node,Outlet Node,4,NODE 44,AIR LOOP HVAC 1
   Supply Air Path Node,Outlet Node,5,NODE 49,AIR LOOP HVAC 1
   Supply Air Path Node,Outlet Node,6,NODE 54,AIR LOOP HVAC 1
   Supply Air Path Node,Outlet Node,7,NODE 59,AIR LOOP HVAC 1
   Supply Air Path Node,Outlet Node,8,NODE 64,AIR LOOP HVAC 1
   Supply Air Path Node,Outlet Node,9,NODE 69,AIR LOOP HVAC 1
   Supply Air Path Node,Outlet Node,10,NODE 74,AIR LOOP HVAC 1
   Supply Air Path Node,Outlet Node,11,NODE 79,AIR LOOP HVAC 1
! ===============================================================
! <#Return Air Paths>,<Number of Return Air Paths>
 #Return Air Paths,1
! <Return Air Path>,<Return Air Path Count>,<Return Air Path Name>,<AirLoopHVAC Name>
! <#Components on Return Air Path>,<Number of Components>
! <Return Air Path Component>,<Component Count>,<Component Type>,<Component Name>,<AirLoopHVAC Name>
! <#Inlet Nodes on Return Air Path Component>,<Number of Nodes>
! <Return Air Path Component Nodes>,<Node Count>,<Component Type>,<Component Name>,<Inlet Node Name>,<Outlet Node Name>,<AirLoopHVAC Name>
 Return Air Path,1,AIRLOOPHVAC:RETURNPATH {B1DB13BB-3A99-43BB-A9E8-D589291DC54A},AIR LOOP HVAC 1
   #Components on Return Air Path,1
   Return Air Path Component,1,AIRLOOPHVAC:ZONEMIXER,AIR LOOP HVAC ZONE MIXER 1,AIR LOOP HVAC 1
     #Inlet Nodes on Return Air Path Component,10
     Return Air Path Component Nodes,1,AIRLOOPHVAC:ZONEMIXER,AIR LOOP HVAC ZONE MIXER 1,NODE 33,NODE 14,AIR LOOP HVAC 1
     Return Air Path Component Nodes,2,AIRLOOPHVAC:ZONEMIXER,AIR LOOP HVAC ZONE MIXER 1,NODE 38,NODE 14,AIR LOOP HVAC 1
     Return Air Path Component Nodes,3,AIRLOOPHVAC:ZONEMIXER,AIR LOOP HVAC ZONE MIXER 1,NODE 43,NODE 14,AIR LOOP HVAC 1
     Return Air Path Component Nodes,4,AIRLOOPHVAC:ZONEMIXER,AIR LOOP HVAC ZONE MIXER 1,NODE 48,NODE 14,AIR LOOP HVAC 1
     Return Air Path Component Nodes,5,AIRLOOPHVAC:ZONEMIXER,AIR LOOP HVAC ZONE MIXER 1,NODE 53,NODE 14,AIR LOOP HVAC 1
     Return Air Path Component Nodes,6,AIRLOOPHVAC:ZONEMIXER,AIR LOOP HVAC ZONE MIXER 1,NODE 58,NODE 14,AIR LOOP HVAC 1
     Return Air Path Component Nodes,7,AIRLOOPHVAC:ZONEMIXER,AIR LOOP HVAC ZONE MIXER 1,NODE 63,NODE 14,AIR LOOP HVAC 1
     Return Air Path Component Nodes,8,AIRLOOPHVAC:ZONEMIXER,AIR LOOP HVAC ZONE MIXER 1,NODE 68,NODE 14,AIR LOOP HVAC 1
     Return Air Path Component Nodes,9,AIRLOOPHVAC:ZONEMIXER,AIR LOOP HVAC ZONE MIXER 1,NODE 73,NODE 14,AIR LOOP HVAC 1
     Return Air Path Component Nodes,10,AIRLOOPHVAC:ZONEMIXER,AIR LOOP HVAC ZONE MIXER 1,NODE 78,NODE 14,AIR LOOP HVAC 1
! <#Nodes on Return Air Path>,<Number of Nodes>
! <Return Air Path Node>,<Node Type>,<Node Count>,<Node Name>,<AirLoopHVAC Name>
   #Nodes on Return Air Path,11
   Return Air Path Node,Outlet Node,1,NODE 14,AIR LOOP HVAC 1
   Return Air Path Node,Inlet Node,2,NODE 33,AIR LOOP HVAC 1
   Return Air Path Node,Inlet Node,3,NODE 38,AIR LOOP HVAC 1
   Return Air Path Node,Inlet Node,4,NODE 43,AIR LOOP HVAC 1
   Return Air Path Node,Inlet Node,5,NODE 48,AIR LOOP HVAC 1
   Return Air Path Node,Inlet Node,6,NODE 53,AIR LOOP HVAC 1
   Return Air Path Node,Inlet Node,7,NODE 58,AIR LOOP HVAC 1
   Return Air Path Node,Inlet Node,8,NODE 63,AIR LOOP HVAC 1
   Return Air Path Node,Inlet Node,9,NODE 68,AIR LOOP HVAC 1
   Return Air Path Node,Inlet Node,10,NODE 73,AIR LOOP HVAC 1
   Return Air Path Node,Inlet Node,11,NODE 78,AIR LOOP HVAC 1
! ===============================================================
! #Outdoor Air Nodes,<Number of Outdoor Air Nodes>
 #Outdoor Air Nodes,1                   
! <Outdoor Air Node>,<NodeNumber>,<Node Name>
 Outdoor Air Node,52,NODE 16
! ===============================================================
! <#Component Sets>,<Number of Component Sets>
 #Component Sets,44
! <Component Set>,<Component Set Count>,<Parent Object Type>,<Parent Object Name>,<Component Type>,<Component Name>,<Inlet Node ID>,<Outlet Node ID>,<Description>
 Component Set,1,BRANCH,BRANCH {20314612-2BD0-4735-9E70-5B88155DA9EC},AIRLOOPHVAC:OUTDOORAIRSYSTEM,AIR LOOP HVAC OUTDOOR AIR SYSTEM 1,NODE 11,NODE 18,Air Nodes
 Component Set,2,BRANCH,BRANCH {20314612-2BD0-4735-9E70-5B88155DA9EC},COILSYSTEM:COOLING:DX,COIL COOLING DX TWO SPEED 1 COILSYSTEM,NODE 18,NODE 19,Air Nodes
 Component Set,3,BRANCH,BRANCH {20314612-2BD0-4735-9E70-5B88155DA9EC},COIL:HEATING:WATER,COIL HEATING WATER 1,NODE 19,NODE 20,Air Nodes
 Component Set,4,BRANCH,BRANCH {20314612-2BD0-4735-9E70-5B88155DA9EC},FAN:VARIABLEVOLUME,FAN VARIABLE VOLUME 1,NODE 20,NODE 12,Air Nodes
 Component Set,5,BRANCH,PLANT LOOP 1 SUPPLY INLET BRANCH,PUMP:VARIABLESPEED,PUMP VARIABLE SPEED 1,NODE 21,NODE 27,Water Nodes
 Component Set,6,BRANCH,PLANT LOOP 1 SUPPLY BRANCH 1,BOILER:HOTWATER,BOILER HOT WATER 1,NODE 23,NODE 28,Hot Water Nodes
 Component Set,7,BRANCH,PLANT LOOP 1 SUPPLY BRANCH 2,PIPE:ADIABATIC,PIPE ADIABATIC 1,NODE 29,NODE 30,Pipe Nodes
 Component Set,8,BRANCH,PLANT LOOP 1 SUPPLY OUTLET BRANCH,PIPE:ADIABATIC,PIPE ADIABATIC 2,NODE 31,NODE 22,Pipe Nodes
 Component Set,9,BRANCH,PLANT LOOP 1 DEMAND INLET BRANCH,PIPE:ADIABATIC,PLANT LOOP 1 DEMAND INLET PIPE,NODE 24,PLANT LOOP 1 DEMAND INLET PIPE NODE,Pipe Nodes
 Component Set,10,BRANCH,PLANT LOOP 1 DEMAND BRANCH 1,COIL:HEATING:WATER,COIL HEATING WATER 1,NODE 26,NODE 32,Water Nodes
 Component Set,11,BRANCH,PLANT LOOP 1 DEMAND BRANCH 2,COIL:HEATING:WATER,COIL HEATING WATER 3,NODE 35,NODE 36,Water Nodes
 Component Set,12,BRANCH,PLANT LOOP 1 DEMAND BRANCH 3,COIL:HEATING:WATER,COIL HEATING WATER 4,NODE 40,NODE 41,Water Nodes
 Component Set,13,BRANCH,PLANT LOOP 1 DEMAND BRANCH 4,COIL:HEATING:WATER,COIL HEATING WATER 5,NODE 45,NODE 46,Water Nodes
 Component Set,14,BRANCH,PLANT LOOP 1 DEMAND BRANCH 5,COIL:HEATING:WATER,COIL HEATING WATER 6,NODE 50,NODE 51,Water Nodes
 Component Set,15,BRANCH,PLANT LOOP 1 DEMAND BRANCH 6,COIL:HEATING:WATER,COIL HEATING WATER 7,NODE 55,NODE 56,Water Nodes
 Component Set,16,BRANCH,PLANT LOOP 1 DEMAND BRANCH 7,COIL:HEATING:WATER,COIL HEATING WATER 8,NODE 60,NODE 61,Water Nodes
 Component Set,17,BRANCH,PLANT LOOP 1 DEMAND BRANCH 8,COIL:HEATING:WATER,COIL HEATING WATER 9,NODE 65,NODE 66,Water Nodes
 Component Set,18,BRANCH,PLANT LOOP 1 DEMAND BRANCH 9,COIL:HEATING:WATER,COIL HEATING WATER 10,NODE 70,NODE 71,Water Nodes
 Component Set,19,BRANCH,PLANT LOOP 1 DEMAND BRANCH 10,COIL:HEATING:WATER,COIL HEATING WATER 11,NODE 75,NODE 76,Water Nodes
 Component Set,20,BRANCH,PLANT LOOP 1 DEMAND BRANCH 11,COIL:HEATING:WATER,COIL HEATING WATER 12,NODE 80,NODE 81,Water Nodes
 Component Set,21,BRANCH,PLANT LOOP 1 DEMAND BYPASS BRANCH,PIPE:ADIABATIC,PLANT LOOP 1 DEMAND BYPASS PIPE,PLANT LOOP 1 DEMAND BYPASS PIPE INLET NODE,PLANT LOOP 1 DEMAND BYPASS PIPE OUTLET NODE,Pipe Nodes
 Component Set,22,BRANCH,PLANT LOOP 1 DEMAND OUTLET BRANCH,PIPE:ADIABATIC,PLANT LOOP 1 DEMAND OUTLET PIPE,PLANT LOOP 1 DEMAND OUTLET PIPE NODE,NODE 25,Pipe Nodes
 Component Set,23,ZONEHVAC:AIRDISTRIBUTIONUNIT,ZONEHVAC:AIRDISTRIBUTIONUNIT {FE13B65D-BE13-46AB-B4DA-75C89C89199D},AIRTERMINAL:SINGLEDUCT:VAV:REHEAT,AIR TERMINAL SINGLE DUCT VAV REHEAT 2,NODE 34,NODE 15,Air Nodes
 Component Set,24,ZONEHVAC:AIRDISTRIBUTIONUNIT,ZONEHVAC:AIRDISTRIBUTIONUNIT {8B154403-22A2-4899-A31E-3DA186C09983},AIRTERMINAL:SINGLEDUCT:VAV:REHEAT,AIR TERMINAL SINGLE DUCT VAV REHEAT 3,NODE 39,NODE 37,Air Nodes
 Component Set,25,ZONEHVAC:AIRDISTRIBUTIONUNIT,ZONEHVAC:AIRDISTRIBUTIONUNIT {C4179135-DC03-4260-AF5A-5B5858D80751},AIRTERMINAL:SINGLEDUCT:VAV:REHEAT,AIR TERMINAL SINGLE DUCT VAV REHEAT 4,NODE 44,NODE 42,Air Nodes
 Component Set,26,ZONEHVAC:AIRDISTRIBUTIONUNIT,ZONEHVAC:AIRDISTRIBUTIONUNIT {1F4DC413-D71A-4A39-BA94-700553490DC8},AIRTERMINAL:SINGLEDUCT:VAV:REHEAT,AIR TERMINAL SINGLE DUCT VAV REHEAT 5,NODE 49,NODE 47,Air Nodes
 Component Set,27,ZONEHVAC:AIRDISTRIBUTIONUNIT,ZONEHVAC:AIRDISTRIBUTIONUNIT {574616AE-96D1-449D-9056-6310164F6184},AIRTERMINAL:SINGLEDUCT:VAV:REHEAT,AIR TERMINAL SINGLE DUCT VAV REHEAT 6,NODE 54,NODE 52,Air Nodes
 Component Set,28,ZONEHVAC:AIRDISTRIBUTIONUNIT,ZONEHVAC:AIRDISTRIBUTIONUNIT {527DED69-8268-4AA6-AD4E-493DE9738B67},AIRTERMINAL:SINGLEDUCT:VAV:REHEAT,AIR TERMINAL SINGLE DUCT VAV REHEAT 7,NODE 59,NODE 57,Air Nodes
 Component Set,29,ZONEHVAC:AIRDISTRIBUTIONUNIT,ZONEHVAC:AIRDISTRIBUTIONUNIT {C517447C-8B72-4EDA-9B10-5E946A94063B},AIRTERMINAL:SINGLEDUCT:VAV:REHEAT,AIR TERMINAL SINGLE DUCT VAV REHEAT 8,NODE 64,NODE 62,Air Nodes
 Component Set,30,ZONEHVAC:AIRDISTRIBUTIONUNIT,ZONEHVAC:AIRDISTRIBUTIONUNIT {094BD73E-8476-46D4-A1D0-68A81FA16312},AIRTERMINAL:SINGLEDUCT:VAV:REHEAT,AIR TERMINAL SINGLE DUCT VAV REHEAT 9,NODE 69,NODE 67,Air Nodes
 Component Set,31,ZONEHVAC:AIRDISTRIBUTIONUNIT,ZONEHVAC:AIRDISTRIBUTIONUNIT {9CB1CC93-CE8D-4531-84C4-18521A8459A7},AIRTERMINAL:SINGLEDUCT:VAV:REHEAT,AIR TERMINAL SINGLE DUCT VAV REHEAT 10,NODE 74,NODE 72,Air Nodes
 Component Set,32,ZONEHVAC:AIRDISTRIBUTIONUNIT,ZONEHVAC:AIRDISTRIBUTIONUNIT {7534DE4F-5CF1-4027-A220-D6FC5787176E},AIRTERMINAL:SINGLEDUCT:VAV:REHEAT,AIR TERMINAL SINGLE DUCT VAV REHEAT 11,NODE 79,NODE 77,Air Nodes
 Component Set,33,AIRTERMINAL:SINGLEDUCT:VAV:REHEAT,AIR TERMINAL SINGLE DUCT VAV REHEAT 2,COIL:HEATING:WATER,COIL HEATING WATER 3,AIR TERMINAL SINGLE DUCT VAV REHEAT 2 DAMPER OUTLET,NODE 15,Air Nodes
 Component Set,34,AIRTERMINAL:SINGLEDUCT:VAV:REHEAT,AIR TERMINAL SINGLE DUCT VAV REHEAT 3,COIL:HEATING:WATER,COIL HEATING WATER 4,AIR TERMINAL SINGLE DUCT VAV REHEAT 3 DAMPER OUTLET,NODE 37,Air Nodes
 Component Set,35,AIRTERMINAL:SINGLEDUCT:VAV:REHEAT,AIR TERMINAL SINGLE DUCT VAV REHEAT 4,COIL:HEATING:WATER,COIL HEATING WATER 5,AIR TERMINAL SINGLE DUCT VAV REHEAT 4 DAMPER OUTLET,NODE 42,Air Nodes
 Component Set,36,AIRTERMINAL:SINGLEDUCT:VAV:REHEAT,AIR TERMINAL SINGLE DUCT VAV REHEAT 5,COIL:HEATING:WATER,COIL HEATING WATER 6,AIR TERMINAL SINGLE DUCT VAV REHEAT 5 DAMPER OUTLET,NODE 47,Air Nodes
 Component Set,37,AIRTERMINAL:SINGLEDUCT:VAV:REHEAT,AIR TERMINAL SINGLE DUCT VAV REHEAT 6,COIL:HEATING:WATER,COIL HEATING WATER 7,AIR TERMINAL SINGLE DUCT VAV REHEAT 6 DAMPER OUTLET,NODE 52,Air Nodes
 Component Set,38,AIRTERMINAL:SINGLEDUCT:VAV:REHEAT,AIR TERMINAL SINGLE DUCT VAV REHEAT 7,COIL:HEATING:WATER,COIL HEATING WATER 8,AIR TERMINAL SINGLE DUCT VAV REHEAT 7 DAMPER OUTLET,NODE 57,Air Nodes
 Component Set,39,AIRTERMINAL:SINGLEDUCT:VAV:REHEAT,AIR TERMINAL SINGLE DUCT VAV REHEAT 8,COIL:HEATING:WATER,COIL HEATING WATER 9,AIR TERMINAL SINGLE DUCT VAV REHEAT 8 DAMPER OUTLET,NODE 62,Air Nodes
 Component Set,40,AIRTERMINAL:SINGLEDUCT:VAV:REHEAT,AIR TERMINAL SINGLE DUCT VAV REHEAT 9,COIL:HEATING:WATER,COIL HEATING WATER 10,AIR TERMINAL SINGLE DUCT VAV REHEAT 9 DAMPER OUTLET,NODE 67,Air Nodes
 Component Set,41,AIRTERMINAL:SINGLEDUCT:VAV:REHEAT,AIR TERMINAL SINGLE DUCT VAV REHEAT 10,COIL:HEATING:WATER,COIL HEATING WATER 11,AIR TERMINAL SINGLE DUCT VAV REHEAT 10 DAMPER OUTLET,NODE 72,Air Nodes
 Component Set,42,AIRTERMINAL:SINGLEDUCT:VAV:REHEAT,AIR TERMINAL SINGLE DUCT VAV REHEAT 11,COIL:HEATING:WATER,COIL HEATING WATER 12,AIR TERMINAL SINGLE DUCT VAV REHEAT 11 DAMPER OUTLET,NODE 77,Air Nodes
 Component Set,43,AIRLOOPHVAC:OUTDOORAIRSYSTEM,AIR LOOP HVAC OUTDOOR AIR SYSTEM 1,OUTDOORAIR:MIXER,OUTDOORAIR:MIXER {B129DAB9-BE04-4C8F-9DB3-384D5F6D321E},NODE 16,NODE 18,Air Nodes
 Component Set,44,COILSYSTEM:COOLING:DX,COIL COOLING DX TWO SPEED 1 COILSYSTEM,COIL:COOLING:DX:TWOSPEED,COIL COOLING DX TWO SPEED 1,NODE 18,NODE 19,Air Nodes
! ===============================================================
! <# Plant Loops>,<Number of Plant Loops>
 #Plant Loops,1
! <Plant Loop>,<Plant Loop Name>,<Loop Type>,<Inlet Node Name>,<Outlet Node Name>,<Branch List>,<Connector List>
! <Plant Loop Connector>,<Connector Type>,<Connector Name>,<Loop Name>,<Loop Type>,<Number of Inlets/Outlets>
! <Plant Loop Connector Branches>,<Connector Node Count>,<Connector Type>,<Connector Name>,<Inlet Branch>,<Outlet Branch>,<Loop Name>,<Loop Type>
! <Plant Loop Connector Nodes>,<Connector Node Count>,<Connector Type>,<Connector Name>,<Inlet Node>,<Outlet Node>,<Loop Name>,<Loop Type>
! <Plant Loop Supply Connection>,<Plant Loop Name>,<Supply Side Outlet Node Name>,<Demand Side Inlet Node Name>
! <Plant Loop Return Connection>,<Plant Loop Name>,<Demand Side Outlet Node Name>,<Supply Side Inlet Node Name>
 Plant Loop,PLANT LOOP 1,Demand,NODE 24,NODE 25,PLANT LOOP 1 DEMAND BRANCHES,PLANT LOOP 1 DEMAND CONNECTOR LIST
   Plant Loop Connector,Splitter,PLANT LOOP 1 DEMAND SPLITTER,PLANT LOOP 1,Demand,12
     Plant Loop Connector Branches,1,Splitter,PLANT LOOP 1 DEMAND SPLITTER,PLANT LOOP 1 DEMAND INLET BRANCH,PLANT LOOP 1 DEMAND BRANCH 1,PLANT LOOP 1,Demand
     Plant Loop Connector Nodes,   1,Splitter,PLANT LOOP 1 DEMAND SPLITTER,PLANT LOOP 1 DEMAND INLET PIPE NODE,NODE 26,PLANT LOOP 1,Demand
     Plant Loop Connector Branches,2,Splitter,PLANT LOOP 1 DEMAND SPLITTER,PLANT LOOP 1 DEMAND INLET BRANCH,PLANT LOOP 1 DEMAND BRANCH 2,PLANT LOOP 1,Demand
     Plant Loop Connector Nodes,   2,Splitter,PLANT LOOP 1 DEMAND SPLITTER,PLANT LOOP 1 DEMAND INLET PIPE NODE,NODE 35,PLANT LOOP 1,Demand
     Plant Loop Connector Branches,3,Splitter,PLANT LOOP 1 DEMAND SPLITTER,PLANT LOOP 1 DEMAND INLET BRANCH,PLANT LOOP 1 DEMAND BRANCH 3,PLANT LOOP 1,Demand
     Plant Loop Connector Nodes,   3,Splitter,PLANT LOOP 1 DEMAND SPLITTER,PLANT LOOP 1 DEMAND INLET PIPE NODE,NODE 40,PLANT LOOP 1,Demand
     Plant Loop Connector Branches,4,Splitter,PLANT LOOP 1 DEMAND SPLITTER,PLANT LOOP 1 DEMAND INLET BRANCH,PLANT LOOP 1 DEMAND BRANCH 4,PLANT LOOP 1,Demand
     Plant Loop Connector Nodes,   4,Splitter,PLANT LOOP 1 DEMAND SPLITTER,PLANT LOOP 1 DEMAND INLET PIPE NODE,NODE 45,PLANT LOOP 1,Demand
     Plant Loop Connector Branches,5,Splitter,PLANT LOOP 1 DEMAND SPLITTER,PLANT LOOP 1 DEMAND INLET BRANCH,PLANT LOOP 1 DEMAND BRANCH 5,PLANT LOOP 1,Demand
     Plant Loop Connector Nodes,   5,Splitter,PLANT LOOP 1 DEMAND SPLITTER,PLANT LOOP 1 DEMAND INLET PIPE NODE,NODE 50,PLANT LOOP 1,Demand
     Plant Loop Connector Branches,6,Splitter,PLANT LOOP 1 DEMAND SPLITTER,PLANT LOOP 1 DEMAND INLET BRANCH,PLANT LOOP 1 DEMAND BRANCH 6,PLANT LOOP 1,Demand
     Plant Loop Connector Nodes,   6,Splitter,PLANT LOOP 1 DEMAND SPLITTER,PLANT LOOP 1 DEMAND INLET PIPE NODE,NODE 55,PLANT LOOP 1,Demand
     Plant Loop Connector Branches,7,Splitter,PLANT LOOP 1 DEMAND SPLITTER,PLANT LOOP 1 DEMAND INLET BRANCH,PLANT LOOP 1 DEMAND BRANCH 7,PLANT LOOP 1,Demand
     Plant Loop Connector Nodes,   7,Splitter,PLANT LOOP 1 DEMAND SPLITTER,PLANT LOOP 1 DEMAND INLET PIPE NODE,NODE 60,PLANT LOOP 1,Demand
     Plant Loop Connector Branches,8,Splitter,PLANT LOOP 1 DEMAND SPLITTER,PLANT LOOP 1 DEMAND INLET BRANCH,PLANT LOOP 1 DEMAND BRANCH 8,PLANT LOOP 1,Demand
     Plant Loop Connector Nodes,   8,Splitter,PLANT LOOP 1 DEMAND SPLITTER,PLANT LOOP 1 DEMAND INLET PIPE NODE,NODE 65,PLANT LOOP 1,Demand
     Plant Loop Connector Branches,9,Splitter,PLANT LOOP 1 DEMAND SPLITTER,PLANT LOOP 1 DEMAND INLET BRANCH,PLANT LOOP 1 DEMAND BRANCH 9,PLANT LOOP 1,Demand
     Plant Loop Connector Nodes,   9,Splitter,PLANT LOOP 1 DEMAND SPLITTER,PLANT LOOP 1 DEMAND INLET PIPE NODE,NODE 70,PLANT LOOP 1,Demand
     Plant Loop Connector Branches,10,Splitter,PLANT LOOP 1 DEMAND SPLITTER,PLANT LOOP 1 DEMAND INLET BRANCH,PLANT LOOP 1 DEMAND BRANCH 10,PLANT LOOP 1,Demand
     Plant Loop Connector Nodes,   10,Splitter,PLANT LOOP 1 DEMAND SPLITTER,PLANT LOOP 1 DEMAND INLET PIPE NODE,NODE 75,PLANT LOOP 1,Demand
     Plant Loop Connector Branches,11,Splitter,PLANT LOOP 1 DEMAND SPLITTER,PLANT LOOP 1 DEMAND INLET BRANCH,PLANT LOOP 1 DEMAND BRANCH 11,PLANT LOOP 1,Demand
     Plant Loop Connector Nodes,   11,Splitter,PLANT LOOP 1 DEMAND SPLITTER,PLANT LOOP 1 DEMAND INLET PIPE NODE,NODE 80,PLANT LOOP 1,Demand
     Plant Loop Connector Branches,12,Splitter,PLANT LOOP 1 DEMAND SPLITTER,PLANT LOOP 1 DEMAND INLET BRANCH,PLANT LOOP 1 DEMAND BYPASS BRANCH,PLANT LOOP 1,Demand
     Plant Loop Connector Nodes,   12,Splitter,PLANT LOOP 1 DEMAND SPLITTER,PLANT LOOP 1 DEMAND INLET PIPE NODE,PLANT LOOP 1 DEMAND BYPASS PIPE INLET NODE,PLANT LOOP 1,Demand
   Plant Loop Connector,Mixer,PLANT LOOP 1 DEMAND MIXER,PLANT LOOP 1,Demand,12
     Plant Loop Connector Branches,1,Mixer,PLANT LOOP 1 DEMAND MIXER,PLANT LOOP 1 DEMAND BRANCH 1,PLANT LOOP 1 DEMAND OUTLET BRANCH,PLANT LOOP 1,Demand
     Plant Loop Connector Nodes,   1,Mixer,PLANT LOOP 1 DEMAND MIXER,NODE 32,PLANT LOOP 1 DEMAND OUTLET PIPE NODE,PLANT LOOP 1,Demand
     Plant Loop Connector Branches,2,Mixer,PLANT LOOP 1 DEMAND MIXER,PLANT LOOP 1 DEMAND BRANCH 2,PLANT LOOP 1 DEMAND OUTLET BRANCH,PLANT LOOP 1,Demand
     Plant Loop Connector Nodes,   2,Mixer,PLANT LOOP 1 DEMAND MIXER,NODE 36,PLANT LOOP 1 DEMAND OUTLET PIPE NODE,PLANT LOOP 1,Demand
     Plant Loop Connector Branches,3,Mixer,PLANT LOOP 1 DEMAND MIXER,PLANT LOOP 1 DEMAND BRANCH 3,PLANT LOOP 1 DEMAND OUTLET BRANCH,PLANT LOOP 1,Demand
     Plant Loop Connector Nodes,   3,Mixer,PLANT LOOP 1 DEMAND MIXER,NODE 41,PLANT LOOP 1 DEMAND OUTLET PIPE NODE,PLANT LOOP 1,Demand
     Plant Loop Connector Branches,4,Mixer,PLANT LOOP 1 DEMAND MIXER,PLANT LOOP 1 DEMAND BRANCH 4,PLANT LOOP 1 DEMAND OUTLET BRANCH,PLANT LOOP 1,Demand
     Plant Loop Connector Nodes,   4,Mixer,PLANT LOOP 1 DEMAND MIXER,NODE 46,PLANT LOOP 1 DEMAND OUTLET PIPE NODE,PLANT LOOP 1,Demand
     Plant Loop Connector Branches,5,Mixer,PLANT LOOP 1 DEMAND MIXER,PLANT LOOP 1 DEMAND BRANCH 5,PLANT LOOP 1 DEMAND OUTLET BRANCH,PLANT LOOP 1,Demand
     Plant Loop Connector Nodes,   5,Mixer,PLANT LOOP 1 DEMAND MIXER,NODE 51,PLANT LOOP 1 DEMAND OUTLET PIPE NODE,PLANT LOOP 1,Demand
     Plant Loop Connector Branches,6,Mixer,PLANT LOOP 1 DEMAND MIXER,PLANT LOOP 1 DEMAND BRANCH 6,PLANT LOOP 1 DEMAND OUTLET BRANCH,PLANT LOOP 1,Demand
     Plant Loop Connector Nodes,   6,Mixer,PLANT LOOP 1 DEMAND MIXER,NODE 56,PLANT LOOP 1 DEMAND OUTLET PIPE NODE,PLANT LOOP 1,Demand
     Plant Loop Connector Branches,7,Mixer,PLANT LOOP 1 DEMAND MIXER,PLANT LOOP 1 DEMAND BRANCH 7,PLANT LOOP 1 DEMAND OUTLET BRANCH,PLANT LOOP 1,Demand
     Plant Loop Connector Nodes,   7,Mixer,PLANT LOOP 1 DEMAND MIXER,NODE 61,PLANT LOOP 1 DEMAND OUTLET PIPE NODE,PLANT LOOP 1,Demand
     Plant Loop Connector Branches,8,Mixer,PLANT LOOP 1 DEMAND MIXER,PLANT LOOP 1 DEMAND BRANCH 8,PLANT LOOP 1 DEMAND OUTLET BRANCH,PLANT LOOP 1,Demand
     Plant Loop Connector Nodes,   8,Mixer,PLANT LOOP 1 DEMAND MIXER,NODE 66,PLANT LOOP 1 DEMAND OUTLET PIPE NODE,PLANT LOOP 1,Demand
     Plant Loop Connector Branches,9,Mixer,PLANT LOOP 1 DEMAND MIXER,PLANT LOOP 1 DEMAND BRANCH 9,PLANT LOOP 1 DEMAND OUTLET BRANCH,PLANT LOOP 1,Demand
     Plant Loop Connector Nodes,   9,Mixer,PLANT LOOP 1 DEMAND MIXER,NODE 71,PLANT LOOP 1 DEMAND OUTLET PIPE NODE,PLANT LOOP 1,Demand
     Plant Loop Connector Branches,10,Mixer,PLANT LOOP 1 DEMAND MIXER,PLANT LOOP 1 DEMAND BRANCH 10,PLANT LOOP 1 DEMAND OUTLET BRANCH,PLANT LOOP 1,Demand
     Plant Loop Connector Nodes,   10,Mixer,PLANT LOOP 1 DEMAND MIXER,NODE 76,PLANT LOOP 1 DEMAND OUTLET PIPE NODE,PLANT LOOP 1,Demand
     Plant Loop Connector Branches,11,Mixer,PLANT LOOP 1 DEMAND MIXER,PLANT LOOP 1 DEMAND BRANCH 11,PLANT LOOP 1 DEMAND OUTLET BRANCH,PLANT LOOP 1,Demand
     Plant Loop Connector Nodes,   11,Mixer,PLANT LOOP 1 DEMAND MIXER,NODE 81,PLANT LOOP 1 DEMAND OUTLET PIPE NODE,PLANT LOOP 1,Demand
     Plant Loop Connector Branches,12,Mixer,PLANT LOOP 1 DEMAND MIXER,PLANT LOOP 1 DEMAND BYPASS BRANCH,PLANT LOOP 1 DEMAND OUTLET BRANCH,PLANT LOOP 1,Demand
     Plant Loop Connector Nodes,   12,Mixer,PLANT LOOP 1 DEMAND MIXER,PLANT LOOP 1 DEMAND BYPASS PIPE OUTLET NODE,PLANT LOOP 1 DEMAND OUTLET PIPE NODE,PLANT LOOP 1,Demand
 Plant Loop,PLANT LOOP 1,Supply,NODE 21,NODE 22,PLANT LOOP 1 SUPPLY BRANCHES,PLANT LOOP 1 SUPPLY CONNECTOR LIST
   Plant Loop Connector,Splitter,PLANT LOOP 1 SUPPLY SPLITTER,PLANT LOOP 1,Supply,2
     Plant Loop Connector Branches,1,Splitter,PLANT LOOP 1 SUPPLY SPLITTER,PLANT LOOP 1 SUPPLY INLET BRANCH,PLANT LOOP 1 SUPPLY BRANCH 1,PLANT LOOP 1,Supply
     Plant Loop Connector Nodes,   1,Splitter,PLANT LOOP 1 SUPPLY SPLITTER,NODE 27,NODE 23,PLANT LOOP 1,Supply
     Plant Loop Connector Branches,2,Splitter,PLANT LOOP 1 SUPPLY SPLITTER,PLANT LOOP 1 SUPPLY INLET BRANCH,PLANT LOOP 1 SUPPLY BRANCH 2,PLANT LOOP 1,Supply
     Plant Loop Connector Nodes,   2,Splitter,PLANT LOOP 1 SUPPLY SPLITTER,NODE 27,NODE 29,PLANT LOOP 1,Supply
   Plant Loop Connector,Mixer,PLANT LOOP 1 SUPPLY MIXER,PLANT LOOP 1,Supply,2
     Plant Loop Connector Branches,1,Mixer,PLANT LOOP 1 SUPPLY MIXER,PLANT LOOP 1 SUPPLY BRANCH 1,PLANT LOOP 1 SUPPLY OUTLET BRANCH,PLANT LOOP 1,Supply
     Plant Loop Connector Nodes,   1,Mixer,PLANT LOOP 1 SUPPLY MIXER,NODE 28,NODE 31,PLANT LOOP 1,Supply
     Plant Loop Connector Branches,2,Mixer,PLANT LOOP 1 SUPPLY MIXER,PLANT LOOP 1 SUPPLY BRANCH 2,PLANT LOOP 1 SUPPLY OUTLET BRANCH,PLANT LOOP 1,Supply
     Plant Loop Connector Nodes,   2,Mixer,PLANT LOOP 1 SUPPLY MIXER,NODE 30,NODE 31,PLANT LOOP 1,Supply
 Plant Loop Supply Connection,PLANT LOOP 1,NODE 22,NODE 24
 Plant Loop Return Connection,PLANT LOOP 1,NODE 25,NODE 21
! ===============================================================
! <# Condenser Loops>,<Number of Condenser Loops>
 #Condenser Loops,0
! <Condenser Loop>,<Condenser Loop Name>,<Loop Type>,<Inlet Node Name>,<Outlet Node Name>,<Branch List>,<Connector List>
! <Condenser Loop Connector>,<Connector Type>,<Connector Name>,<Loop Name>,<Loop Type>,<Number of Inlets/Outlets>
! <Condenser Loop Connector Branches>,<Connector Node Count>,<Connector Type>,<Connector Name>,<Inlet Branch>,<Outlet Branch>,<Loop Name>,<Loop Type>
! <Condenser Loop Connector Nodes>,<Connector Node Count>,<Connector Type>,<Connector Name>,<Inlet Node>,<Outlet Node>,<Loop Name>,<Loop Type>
! <Condenser Loop Supply Connection>,<Condenser Loop Name>,<Supply Side Outlet Node Name>,<Demand Side Inlet Node Name>
! <Condenser Loop Return Connection>,<Condenser Loop Name>,<Demand Side Outlet Node Name>,<Supply Side Inlet Node Name>
! ===============================================================
! <# Controlled Zones>,<Number of Controlled Zones>
 #Controlled Zones,10
! <Controlled Zone>,<Controlled Zone Name>,<Equip List Name>,<Control List Name>,<Zone Node Name>,<Return Air Node Name>,<# Inlet Nodes>,<# Exhaust Nodes>
! <Controlled Zone Inlet>,<Inlet Node Count>,<Controlled Zone Name>,<Supply Air Inlet Node Name>,<SD Sys:Cooling/Heating [DD:Cooling] Inlet Node Name>,<DD Sys:Heating Inlet Node Name>
! <Controlled Zone Exhaust>,<Exhaust Node Count>,<Controlled Zone Name>,<Exhaust Air Node Name>
 Controlled Zone,THERMAL ZONE 4,ZONE HVAC EQUIPMENT LIST 4,,NODE 4,NODE 78,1,0
   Controlled Zone Inlet,1,THERMAL ZONE 4,NODE 77,NODE 79,N/A
 Controlled Zone,THERMAL ZONE 5,ZONE HVAC EQUIPMENT LIST 5,,NODE 5,NODE 68,1,0
   Controlled Zone Inlet,1,THERMAL ZONE 5,NODE 67,NODE 69,N/A
 Controlled Zone,THERMAL ZONE 2,ZONE HVAC EQUIPMENT LIST 2,,NODE 2,NODE 48,1,0
   Controlled Zone Inlet,1,THERMAL ZONE 2,NODE 47,NODE 49,N/A
 Controlled Zone,THERMAL ZONE 9,ZONE HVAC EQUIPMENT LIST 9,,NODE 9,NODE 58,1,0
   Controlled Zone Inlet,1,THERMAL ZONE 9,NODE 57,NODE 59,N/A
 Controlled Zone,THERMAL ZONE 6,ZONE HVAC EQUIPMENT LIST 6,,NODE 6,NODE 73,1,0
   Controlled Zone Inlet,1,THERMAL ZONE 6,NODE 72,NODE 74,N/A
 Controlled Zone,THERMAL ZONE 10,ZONE HVAC EQUIPMENT LIST 10,,NODE 10,NODE 38,1,0
   Controlled Zone Inlet,1,THERMAL ZONE 10,NODE 37,NODE 39,N/A
 Controlled Zone,THERMAL ZONE 1,ZONE HVAC EQUIPMENT LIST 1,,NODE 1,NODE 63,1,0
   Controlled Zone Inlet,1,THERMAL ZONE 1,NODE 62,NODE 64,N/A
 Controlled Zone,THERMAL ZONE 8,ZONE HVAC EQUIPMENT LIST 8,,NODE 8,NODE 43,1,0
   Controlled Zone Inlet,1,THERMAL ZONE 8,NODE 42,NODE 44,N/A
 Controlled Zone,THERMAL ZONE 3,ZONE HVAC EQUIPMENT LIST 3,,NODE 3,NODE 53,1,0
   Controlled Zone Inlet,1,THERMAL ZONE 3,NODE 52,NODE 54,N/A
 Controlled Zone,THERMAL ZONE 7,ZONE HVAC EQUIPMENT LIST 7,,NODE 7,NODE 33,1,0
   Controlled Zone Inlet,1,THERMAL ZONE 7,NODE 15,NODE 34,N/A
! ===============================================================
! <#Zone Equipment Lists>,<Number of Zone Equipment Lists>
 #Zone Equipment Lists,10
! <Zone Equipment List>,<Zone Equipment List Count>,<Zone Equipment List Name>,<Zone Name>,<Number of Components>
! <Zone Equipment Component>,<Component Count>,<Component Type>,<Component Name>,<Zone Name>,<Heating Priority>,<Cooling Priority>
 Zone Equipment List,1,ZONE HVAC EQUIPMENT LIST 4,THERMAL ZONE 4,1
   Zone Equipment Component,1,ZONEHVAC:AIRDISTRIBUTIONUNIT,ZONEHVAC:AIRDISTRIBUTIONUNIT {7534DE4F-5CF1-4027-A220-D6FC5787176E},THERMAL ZONE 4,1,1
 Zone Equipment List,2,ZONE HVAC EQUIPMENT LIST 5,THERMAL ZONE 5,1
   Zone Equipment Component,1,ZONEHVAC:AIRDISTRIBUTIONUNIT,ZONEHVAC:AIRDISTRIBUTIONUNIT {094BD73E-8476-46D4-A1D0-68A81FA16312},THERMAL ZONE 5,1,1
 Zone Equipment List,3,ZONE HVAC EQUIPMENT LIST 2,THERMAL ZONE 2,1
   Zone Equipment Component,1,ZONEHVAC:AIRDISTRIBUTIONUNIT,ZONEHVAC:AIRDISTRIBUTIONUNIT {1F4DC413-D71A-4A39-BA94-700553490DC8},THERMAL ZONE 2,1,1
 Zone Equipment List,4,ZONE HVAC EQUIPMENT LIST 9,THERMAL ZONE 9,1
   Zone Equipment Component,1,ZONEHVAC:AIRDISTRIBUTIONUNIT,ZONEHVAC:AIRDISTRIBUTIONUNIT {527DED69-8268-4AA6-AD4E-493DE9738B67},THERMAL ZONE 9,1,1
 Zone Equipment List,5,ZONE HVAC EQUIPMENT LIST 6,THERMAL ZONE 6,1
   Zone Equipment Component,1,ZONEHVAC:AIRDISTRIBUTIONUNIT,ZONEHVAC:AIRDISTRIBUTIONUNIT {9CB1CC93-CE8D-4531-84C4-18521A8459A7},THERMAL ZONE 6,1,1
 Zone Equipment List,6,ZONE HVAC EQUIPMENT LIST 10,THERMAL ZONE 10,1
   Zone Equipment Component,1,ZONEHVAC:AIRDISTRIBUTIONUNIT,ZONEHVAC:AIRDISTRIBUTIONUNIT {8B154403-22A2-4899-A31E-3DA186C09983},THERMAL ZONE 10,1,1
 Zone Equipment List,7,ZONE HVAC EQUIPMENT LIST 1,THERMAL ZONE 1,1
   Zone Equipment Component,1,ZONEHVAC:AIRDISTRIBUTIONUNIT,ZONEHVAC:AIRDISTRIBUTIONUNIT {C517447C-8B72-4EDA-9B10-5E946A94063B},THERMAL ZONE 1,1,1
 Zone Equipment List,8,ZONE HVAC EQUIPMENT LIST 8,THERMAL ZONE 8,1
   Zone Equipment Component,1,ZONEHVAC:AIRDISTRIBUTIONUNIT,ZONEHVAC:AIRDISTRIBUTIONUNIT {C4179135-DC03-4260-AF5A-5B5858D80751},THERMAL ZONE 8,1,1
 Zone Equipment List,9,ZONE HVAC EQUIPMENT LIST 3,THERMAL ZONE 3,1
   Zone Equipment Component,1,ZONEHVAC:AIRDISTRIBUTIONUNIT,ZONEHVAC:AIRDISTRIBUTIONUNIT {574616AE-96D1-449D-9056-6310164F6184},THERMAL ZONE 3,1,1
 Zone Equipment List,10,ZONE HVAC EQUIPMENT LIST 7,THERMAL ZONE 7,1
   Zone Equipment Component,1,ZONEHVAC:AIRDISTRIBUTIONUNIT,ZONEHVAC:AIRDISTRIBUTIONUNIT {FE13B65D-BE13-46AB-B4DA-75C89C89199D},THERMAL ZONE 7,1,1
! ===============================================================
! <#Dual Duct Damper Connections>,<Number of Dual Duct Damper Connections>
 #Dual Duct Damper Connections,0
! <Dual Duct Damper>,<Dual Duct Damper Count>,<Dual Duct Damper Name>,<Inlet Node>,<Outlet Node>,<Inlet Node Type>,<AirLoopHVAC Name>
! ===============================================================
! <#AirLoopHVACs>,<Number of AirLoopHVACs>
 #AirLoopHVACs,1
! <AirLoopHVAC>,<Air Loop Name>,<# Return Nodes>,<# Supply Nodes>,<# Zones Cooled>,<# Zones Heated>,<Outdoor Air Used>
! <AirLoop Return Connections>,<Connection Count>,<AirLoopHVAC Name>,<Zn Eqp Return Node #>,<Zn Eqp Return Node Name>,<AirLoop Return Node #>,<Air Loop Return Node Name>
! <AirLoop Supply Connections>,<Connection Count>,<AirLoopHVAC Name>,<Zn Eqp Supply Node #>,<Zn Eqp Supply Node Name>,<AirLoop Supply Node #>,<Air Loop Supply Node Name>
! <Cooled Zone Info>,<Cooled Zone Count>,<Cooled Zone Name>,<Cooled Zone Inlet Node #>,<Cooled Zone Inlet Node Name>,<AirLoopHVAC Name>
! <Heated Zone Info>,<Heated Zone Count>,<Heated Zone Name>,<Heated Zone Inlet Node #>,<Heated Zone Inlet Node Name>,<AirLoopHVAC Name>
! <Outdoor Air Connections>,<OA Inlet Node #>,<OA Return Air Inlet Node Name>,<OA Outlet Node #>,<OA Mixed Air Outlet Node Name>,<AirLoopHVAC Name>
! <AirLoopHVAC Connector>,<Connector Type>,<Connector Name>,<Loop Name>,<Loop Type>,<Number of Inlets/Outlets>
! <AirLoopHVAC Connector Branches>,<Connector Node Count>,<Connector Type>,<Connector Name>,<Inlet Branch>,<Outlet Branch>,<Loop Name>,<Loop Type>
! <AirLoopHVAC Connector Nodes>,<Connector Node Count>,<Connector Type>,<Connector Name>,<Inlet Node>,<Outlet Node>,<Loop Name>,<Loop Type>
 AirLoopHVAC,AIR LOOP HVAC 1,1,1,10,0,Yes
   AirLoop Return Connections,1,AIR LOOP HVAC 1,74,NODE 14,11,NODE 11
   AirLoop Supply Connections,1,AIR LOOP HVAC 1,73,NODE 13,15,NODE 12
   Cooled Zone Info,1,THERMAL ZONE 7,10,NODE 15,AIR LOOP HVAC 1
   Cooled Zone Info,2,THERMAL ZONE 10,6,NODE 37,AIR LOOP HVAC 1
   Cooled Zone Info,3,THERMAL ZONE 8,8,NODE 42,AIR LOOP HVAC 1
   Cooled Zone Info,4,THERMAL ZONE 2,3,NODE 47,AIR LOOP HVAC 1
   Cooled Zone Info,5,THERMAL ZONE 3,9,NODE 52,AIR LOOP HVAC 1
   Cooled Zone Info,6,THERMAL ZONE 9,4,NODE 57,AIR LOOP HVAC 1
   Cooled Zone Info,7,THERMAL ZONE 1,7,NODE 62,AIR LOOP HVAC 1
   Cooled Zone Info,8,THERMAL ZONE 5,2,NODE 67,AIR LOOP HVAC 1
   Cooled Zone Info,9,THERMAL ZONE 6,5,NODE 72,AIR LOOP HVAC 1
   Cooled Zone Info,10,THERMAL ZONE 4,1,NODE 77,AIR LOOP HVAC 1
   Outdoor Air Connections,11,NODE 11,12,NODE 18,AIR LOOP HVAC 1
! ===============================================================
! <#Parent Node Connections>,<Number of Parent Node Connections>
 #Parent Node Connections,75
! <Parent Node Connection>,<Node Name>,<Node ObjectType>,<Node ObjectName>,<Node ConnectionType>,<Node FluidStream>
 Parent Node Connection,NODE 11,BRANCH,BRANCH {20314612-2BD0-4735-9E70-5B88155DA9EC},Inlet,1
 Parent Node Connection,NODE 18,BRANCH,BRANCH {20314612-2BD0-4735-9E70-5B88155DA9EC},Internal,1
 Parent Node Connection,NODE 19,BRANCH,BRANCH {20314612-2BD0-4735-9E70-5B88155DA9EC},Internal,1
 Parent Node Connection,NODE 20,BRANCH,BRANCH {20314612-2BD0-4735-9E70-5B88155DA9EC},Internal,1
 Parent Node Connection,NODE 12,BRANCH,BRANCH {20314612-2BD0-4735-9E70-5B88155DA9EC},Outlet,1
 Parent Node Connection,NODE 21,BRANCH,PLANT LOOP 1 SUPPLY INLET BRANCH,Inlet,1
 Parent Node Connection,NODE 27,BRANCH,PLANT LOOP 1 SUPPLY INLET BRANCH,Outlet,1
 Parent Node Connection,NODE 23,BRANCH,PLANT LOOP 1 SUPPLY BRANCH 1,Inlet,1
 Parent Node Connection,NODE 28,BRANCH,PLANT LOOP 1 SUPPLY BRANCH 1,Outlet,1
 Parent Node Connection,NODE 29,BRANCH,PLANT LOOP 1 SUPPLY BRANCH 2,Inlet,1
 Parent Node Connection,NODE 30,BRANCH,PLANT LOOP 1 SUPPLY BRANCH 2,Outlet,1
 Parent Node Connection,NODE 31,BRANCH,PLANT LOOP 1 SUPPLY OUTLET BRANCH,Inlet,1
 Parent Node Connection,NODE 22,BRANCH,PLANT LOOP 1 SUPPLY OUTLET BRANCH,Outlet,1
 Parent Node Connection,NODE 24,BRANCH,PLANT LOOP 1 DEMAND INLET BRANCH,Inlet,1
 Parent Node Connection,PLANT LOOP 1 DEMAND INLET PIPE NODE,BRANCH,PLANT LOOP 1 DEMAND INLET BRANCH,Outlet,1
 Parent Node Connection,NODE 26,BRANCH,PLANT LOOP 1 DEMAND BRANCH 1,Inlet,1
 Parent Node Connection,NODE 32,BRANCH,PLANT LOOP 1 DEMAND BRANCH 1,Outlet,1
 Parent Node Connection,NODE 35,BRANCH,PLANT LOOP 1 DEMAND BRANCH 2,Inlet,1
 Parent Node Connection,NODE 36,BRANCH,PLANT LOOP 1 DEMAND BRANCH 2,Outlet,1
 Parent Node Connection,NODE 40,BRANCH,PLANT LOOP 1 DEMAND BRANCH 3,Inlet,1
 Parent Node Connection,NODE 41,BRANCH,PLANT LOOP 1 DEMAND BRANCH 3,Outlet,1
 Parent Node Connection,NODE 45,BRANCH,PLANT LOOP 1 DEMAND BRANCH 4,Inlet,1
 Parent Node Connection,NODE 46,BRANCH,PLANT LOOP 1 DEMAND BRANCH 4,Outlet,1
 Parent Node Connection,NODE 50,BRANCH,PLANT LOOP 1 DEMAND BRANCH 5,Inlet,1
 Parent Node Connection,NODE 51,BRANCH,PLANT LOOP 1 DEMAND BRANCH 5,Outlet,1
 Parent Node Connection,NODE 55,BRANCH,PLANT LOOP 1 DEMAND BRANCH 6,Inlet,1
 Parent Node Connection,NODE 56,BRANCH,PLANT LOOP 1 DEMAND BRANCH 6,Outlet,1
 Parent Node Connection,NODE 60,BRANCH,PLANT LOOP 1 DEMAND BRANCH 7,Inlet,1
 Parent Node Connection,NODE 61,BRANCH,PLANT LOOP 1 DEMAND BRANCH 7,Outlet,1
 Parent Node Connection,NODE 65,BRANCH,PLANT LOOP 1 DEMAND BRANCH 8,Inlet,1
 Parent Node Connection,NODE 66,BRANCH,PLANT LOOP 1 DEMAND BRANCH 8,Outlet,1
 Parent Node Connection,NODE 70,BRANCH,PLANT LOOP 1 DEMAND BRANCH 9,Inlet,1
 Parent Node Connection,NODE 71,BRANCH,PLANT LOOP 1 DEMAND BRANCH 9,Outlet,1
 Parent Node Connection,NODE 75,BRANCH,PLANT LOOP 1 DEMAND BRANCH 10,Inlet,1
 Parent Node Connection,NODE 76,BRANCH,PLANT LOOP 1 DEMAND BRANCH 10,Outlet,1
 Parent Node Connection,NODE 80,BRANCH,PLANT LOOP 1 DEMAND BRANCH 11,Inlet,1
 Parent Node Connection,NODE 81,BRANCH,PLANT LOOP 1 DEMAND BRANCH 11,Outlet,1
 Parent Node Connection,PLANT LOOP 1 DEMAND BYPASS PIPE INLET NODE,BRANCH,PLANT LOOP 1 DEMAND BYPASS BRANCH,Inlet,1
 Parent Node Connection,PLANT LOOP 1 DEMAND BYPASS PIPE OUTLET NODE,BRANCH,PLANT LOOP 1 DEMAND BYPASS BRANCH,Outlet,1
 Parent Node Connection,PLANT LOOP 1 DEMAND OUTLET PIPE NODE,BRANCH,PLANT LOOP 1 DEMAND OUTLET BRANCH,Inlet,1
 Parent Node Connection,NODE 25,BRANCH,PLANT LOOP 1 DEMAND OUTLET BRANCH,Outlet,1
 Parent Node Connection,NODE 21,PLANTLOOP,PLANT LOOP 1,Inlet,1
 Parent Node Connection,NODE 22,PLANTLOOP,PLANT LOOP 1,Outlet,1
 Parent Node Connection,NODE 24,PLANTLOOP,PLANT LOOP 1,Inlet,1
 Parent Node Connection,NODE 25,PLANTLOOP,PLANT LOOP 1,Outlet,1
 Parent Node Connection,NODE 22,PLANTLOOP,PLANT LOOP 1,Sensor,1
 Parent Node Connection,NODE 13,AIRLOOPHVAC:SUPPLYPATH,AIRLOOPHVAC:SUPPLYPATH {6A0908C7-32CF-4E5B-BF65-F962F1EF8C7C},Inlet,1
 Parent Node Connection,NODE 14,AIRLOOPHVAC:RETURNPATH,AIRLOOPHVAC:RETURNPATH {B1DB13BB-3A99-43BB-A9E8-D589291DC54A},Outlet,1
 Parent Node Connection,NODE 15,ZONEHVAC:AIRDISTRIBUTIONUNIT,ZONEHVAC:AIRDISTRIBUTIONUNIT {FE13B65D-BE13-46AB-B4DA-75C89C89199D},Outlet,1
 Parent Node Connection,NODE 37,ZONEHVAC:AIRDISTRIBUTIONUNIT,ZONEHVAC:AIRDISTRIBUTIONUNIT {8B154403-22A2-4899-A31E-3DA186C09983},Outlet,1
 Parent Node Connection,NODE 42,ZONEHVAC:AIRDISTRIBUTIONUNIT,ZONEHVAC:AIRDISTRIBUTIONUNIT {C4179135-DC03-4260-AF5A-5B5858D80751},Outlet,1
 Parent Node Connection,NODE 47,ZONEHVAC:AIRDISTRIBUTIONUNIT,ZONEHVAC:AIRDISTRIBUTIONUNIT {1F4DC413-D71A-4A39-BA94-700553490DC8},Outlet,1
 Parent Node Connection,NODE 52,ZONEHVAC:AIRDISTRIBUTIONUNIT,ZONEHVAC:AIRDISTRIBUTIONUNIT {574616AE-96D1-449D-9056-6310164F6184},Outlet,1
 Parent Node Connection,NODE 57,ZONEHVAC:AIRDISTRIBUTIONUNIT,ZONEHVAC:AIRDISTRIBUTIONUNIT {527DED69-8268-4AA6-AD4E-493DE9738B67},Outlet,1
 Parent Node Connection,NODE 62,ZONEHVAC:AIRDISTRIBUTIONUNIT,ZONEHVAC:AIRDISTRIBUTIONUNIT {C517447C-8B72-4EDA-9B10-5E946A94063B},Outlet,1
 Parent Node Connection,NODE 67,ZONEHVAC:AIRDISTRIBUTIONUNIT,ZONEHVAC:AIRDISTRIBUTIONUNIT {094BD73E-8476-46D4-A1D0-68A81FA16312},Outlet,1
 Parent Node Connection,NODE 72,ZONEHVAC:AIRDISTRIBUTIONUNIT,ZONEHVAC:AIRDISTRIBUTIONUNIT {9CB1CC93-CE8D-4531-84C4-18521A8459A7},Outlet,1
 Parent Node Connection,NODE 77,ZONEHVAC:AIRDISTRIBUTIONUNIT,ZONEHVAC:AIRDISTRIBUTIONUNIT {7534DE4F-5CF1-4027-A220-D6FC5787176E},Outlet,1
 Parent Node Connection,NODE 15,AIRTERMINAL:SINGLEDUCT:VAV:REHEAT,AIR TERMINAL SINGLE DUCT VAV REHEAT 2,Outlet,1
 Parent Node Connection,NODE 37,AIRTERMINAL:SINGLEDUCT:VAV:REHEAT,AIR TERMINAL SINGLE DUCT VAV REHEAT 3,Outlet,1
 Parent Node Connection,NODE 42,AIRTERMINAL:SINGLEDUCT:VAV:REHEAT,AIR TERMINAL SINGLE DUCT VAV REHEAT 4,Outlet,1
 Parent Node Connection,NODE 47,AIRTERMINAL:SINGLEDUCT:VAV:REHEAT,AIR TERMINAL SINGLE DUCT VAV REHEAT 5,Outlet,1
 Parent Node Connection,NODE 52,AIRTERMINAL:SINGLEDUCT:VAV:REHEAT,AIR TERMINAL SINGLE DUCT VAV REHEAT 6,Outlet,1
 Parent Node Connection,NODE 57,AIRTERMINAL:SINGLEDUCT:VAV:REHEAT,AIR TERMINAL SINGLE DUCT VAV REHEAT 7,Outlet,1
 Parent Node Connection,NODE 62,AIRTERMINAL:SINGLEDUCT:VAV:REHEAT,AIR TERMINAL SINGLE DUCT VAV REHEAT 8,Outlet,1
 Parent Node Connection,NODE 67,AIRTERMINAL:SINGLEDUCT:VAV:REHEAT,AIR TERMINAL SINGLE DUCT VAV REHEAT 9,Outlet,1
 Parent Node Connection,NODE 72,AIRTERMINAL:SINGLEDUCT:VAV:REHEAT,AIR TERMINAL SINGLE DUCT VAV REHEAT 10,Outlet,1
 Parent Node Connection,NODE 77,AIRTERMINAL:SINGLEDUCT:VAV:REHEAT,AIR TERMINAL SINGLE DUCT VAV REHEAT 11,Outlet,1
 Parent Node Connection,NODE 11,AIRLOOPHVAC,AIR LOOP HVAC 1,Inlet,1
 Parent Node Connection,NODE 14,AIRLOOPHVAC,AIR LOOP HVAC 1,Outlet,1
 Parent Node Connection,NODE 13,AIRLOOPHVAC,AIR LOOP HVAC 1,Inlet,1
 Parent Node Connection,NODE 12,AIRLOOPHVAC,AIR LOOP HVAC 1,Outlet,1
 Parent Node Connection,NODE 18,COILSYSTEM:COOLING:DX,COIL COOLING DX TWO SPEED 1 COILSYSTEM,Inlet,1
 Parent Node Connection,NODE 19,COILSYSTEM:COOLING:DX,COIL COOLING DX TWO SPEED 1 COILSYSTEM,Outlet,1
 Parent Node Connection,NODE 19,COILSYSTEM:COOLING:DX,COIL COOLING DX TWO SPEED 1 COILSYSTEM,Sensor,1
! ===============================================================
! <#Non-Parent Node Connections>,<Number of Non-Parent Node Connections>
 #Non-Parent Node Connections,188
! <Non-Parent Node Connection>,<Node Name>,<Node ObjectType>,<Node ObjectName>,<Node ConnectionType>,<Node FluidStream>
 Non-Parent Node Connection,NODE 16,OUTDOORAIR:NODELIST,OutdoorAir:NodeList,OutdoorAir,1
 Non-Parent Node Connection,NODE 12,SETPOINTMANAGER:SCHEDULED,SETPOINT MANAGER SCHEDULED 1,Setpoint,1
 Non-Parent Node Connection,NODE 22,SETPOINTMANAGER:SCHEDULED,SETPOINT MANAGER SCHEDULED 2,Setpoint,1
 Non-Parent Node Connection,NODE 12,SETPOINTMANAGER:MIXEDAIR,SETPOINT MANAGER MIXED AIR 3,Sensor,1
 Non-Parent Node Connection,NODE 20,SETPOINTMANAGER:MIXEDAIR,SETPOINT MANAGER MIXED AIR 3,Sensor,1
 Non-Parent Node Connection,NODE 18,SETPOINTMANAGER:MIXEDAIR,SETPOINT MANAGER MIXED AIR 3,Setpoint,1
 Non-Parent Node Connection,NODE 12,SETPOINTMANAGER:MIXEDAIR,SETPOINT MANAGER MIXED AIR 2,Sensor,1
 Non-Parent Node Connection,NODE 20,SETPOINTMANAGER:MIXEDAIR,SETPOINT MANAGER MIXED AIR 2,Sensor,1
 Non-Parent Node Connection,NODE 19,SETPOINTMANAGER:MIXEDAIR,SETPOINT MANAGER MIXED AIR 2,Setpoint,1
 Non-Parent Node Connection,NODE 12,SETPOINTMANAGER:MIXEDAIR,SETPOINT MANAGER MIXED AIR 1,Sensor,1
 Non-Parent Node Connection,NODE 20,SETPOINTMANAGER:MIXEDAIR,SETPOINT MANAGER MIXED AIR 1,Sensor,1
 Non-Parent Node Connection,NODE 20,SETPOINTMANAGER:MIXEDAIR,SETPOINT MANAGER MIXED AIR 1,Setpoint,1
 Non-Parent Node Connection,PLANT LOOP 1 DEMAND INLET PIPE NODE,CONNECTOR:SPLITTER,PLANT LOOP 1 DEMAND SPLITTER,Inlet,1
 Non-Parent Node Connection,NODE 26,CONNECTOR:SPLITTER,PLANT LOOP 1 DEMAND SPLITTER,Outlet,1
 Non-Parent Node Connection,NODE 35,CONNECTOR:SPLITTER,PLANT LOOP 1 DEMAND SPLITTER,Outlet,1
 Non-Parent Node Connection,NODE 40,CONNECTOR:SPLITTER,PLANT LOOP 1 DEMAND SPLITTER,Outlet,1
 Non-Parent Node Connection,NODE 45,CONNECTOR:SPLITTER,PLANT LOOP 1 DEMAND SPLITTER,Outlet,1
 Non-Parent Node Connection,NODE 50,CONNECTOR:SPLITTER,PLANT LOOP 1 DEMAND SPLITTER,Outlet,1
 Non-Parent Node Connection,NODE 55,CONNECTOR:SPLITTER,PLANT LOOP 1 DEMAND SPLITTER,Outlet,1
 Non-Parent Node Connection,NODE 60,CONNECTOR:SPLITTER,PLANT LOOP 1 DEMAND SPLITTER,Outlet,1
 Non-Parent Node Connection,NODE 65,CONNECTOR:SPLITTER,PLANT LOOP 1 DEMAND SPLITTER,Outlet,1
 Non-Parent Node Connection,NODE 70,CONNECTOR:SPLITTER,PLANT LOOP 1 DEMAND SPLITTER,Outlet,1
 Non-Parent Node Connection,NODE 75,CONNECTOR:SPLITTER,PLANT LOOP 1 DEMAND SPLITTER,Outlet,1
 Non-Parent Node Connection,NODE 80,CONNECTOR:SPLITTER,PLANT LOOP 1 DEMAND SPLITTER,Outlet,1
 Non-Parent Node Connection,PLANT LOOP 1 DEMAND BYPASS PIPE INLET NODE,CONNECTOR:SPLITTER,PLANT LOOP 1 DEMAND SPLITTER,Outlet,1
 Non-Parent Node Connection,PLANT LOOP 1 DEMAND OUTLET PIPE NODE,CONNECTOR:MIXER,PLANT LOOP 1 DEMAND MIXER,Outlet,1
 Non-Parent Node Connection,NODE 32,CONNECTOR:MIXER,PLANT LOOP 1 DEMAND MIXER,Inlet,1
 Non-Parent Node Connection,NODE 36,CONNECTOR:MIXER,PLANT LOOP 1 DEMAND MIXER,Inlet,1
 Non-Parent Node Connection,NODE 41,CONNECTOR:MIXER,PLANT LOOP 1 DEMAND MIXER,Inlet,1
 Non-Parent Node Connection,NODE 46,CONNECTOR:MIXER,PLANT LOOP 1 DEMAND MIXER,Inlet,1
 Non-Parent Node Connection,NODE 51,CONNECTOR:MIXER,PLANT LOOP 1 DEMAND MIXER,Inlet,1
 Non-Parent Node Connection,NODE 56,CONNECTOR:MIXER,PLANT LOOP 1 DEMAND MIXER,Inlet,1
 Non-Parent Node Connection,NODE 61,CONNECTOR:MIXER,PLANT LOOP 1 DEMAND MIXER,Inlet,1
 Non-Parent Node Connection,NODE 66,CONNECTOR:MIXER,PLANT LOOP 1 DEMAND MIXER,Inlet,1
 Non-Parent Node Connection,NODE 71,CONNECTOR:MIXER,PLANT LOOP 1 DEMAND MIXER,Inlet,1
 Non-Parent Node Connection,NODE 76,CONNECTOR:MIXER,PLANT LOOP 1 DEMAND MIXER,Inlet,1
 Non-Parent Node Connection,NODE 81,CONNECTOR:MIXER,PLANT LOOP 1 DEMAND MIXER,Inlet,1
 Non-Parent Node Connection,PLANT LOOP 1 DEMAND BYPASS PIPE OUTLET NODE,CONNECTOR:MIXER,PLANT LOOP 1 DEMAND MIXER,Inlet,1
 Non-Parent Node Connection,NODE 27,CONNECTOR:SPLITTER,PLANT LOOP 1 SUPPLY SPLITTER,Inlet,1
 Non-Parent Node Connection,NODE 23,CONNECTOR:SPLITTER,PLANT LOOP 1 SUPPLY SPLITTER,Outlet,1
 Non-Parent Node Connection,NODE 29,CONNECTOR:SPLITTER,PLANT LOOP 1 SUPPLY SPLITTER,Outlet,1
 Non-Parent Node Connection,NODE 31,CONNECTOR:MIXER,PLANT LOOP 1 SUPPLY MIXER,Outlet,1
 Non-Parent Node Connection,NODE 28,CONNECTOR:MIXER,PLANT LOOP 1 SUPPLY MIXER,Inlet,1
 Non-Parent Node Connection,NODE 30,CONNECTOR:MIXER,PLANT LOOP 1 SUPPLY MIXER,Inlet,1
 Non-Parent Node Connection,NODE 4,ZONEHVAC:EQUIPMENTCONNECTIONS,THERMAL ZONE 4,ZoneNode,1
 Non-Parent Node Connection,NODE 78,ZONEHVAC:EQUIPMENTCONNECTIONS,THERMAL ZONE 4,ZoneReturn,1
 Non-Parent Node Connection,NODE 77,ZONEHVAC:EQUIPMENTCONNECTIONS,THERMAL ZONE 4,ZoneInlet,1
 Non-Parent Node Connection,NODE 5,ZONEHVAC:EQUIPMENTCONNECTIONS,THERMAL ZONE 5,ZoneNode,1
 Non-Parent Node Connection,NODE 68,ZONEHVAC:EQUIPMENTCONNECTIONS,THERMAL ZONE 5,ZoneReturn,1
 Non-Parent Node Connection,NODE 67,ZONEHVAC:EQUIPMENTCONNECTIONS,THERMAL ZONE 5,ZoneInlet,1
 Non-Parent Node Connection,NODE 2,ZONEHVAC:EQUIPMENTCONNECTIONS,THERMAL ZONE 2,ZoneNode,1
 Non-Parent Node Connection,NODE 48,ZONEHVAC:EQUIPMENTCONNECTIONS,THERMAL ZONE 2,ZoneReturn,1
 Non-Parent Node Connection,NODE 47,ZONEHVAC:EQUIPMENTCONNECTIONS,THERMAL ZONE 2,ZoneInlet,1
 Non-Parent Node Connection,NODE 9,ZONEHVAC:EQUIPMENTCONNECTIONS,THERMAL ZONE 9,ZoneNode,1
 Non-Parent Node Connection,NODE 58,ZONEHVAC:EQUIPMENTCONNECTIONS,THERMAL ZONE 9,ZoneReturn,1
 Non-Parent Node Connection,NODE 57,ZONEHVAC:EQUIPMENTCONNECTIONS,THERMAL ZONE 9,ZoneInlet,1
 Non-Parent Node Connection,NODE 6,ZONEHVAC:EQUIPMENTCONNECTIONS,THERMAL ZONE 6,ZoneNode,1
 Non-Parent Node Connection,NODE 73,ZONEHVAC:EQUIPMENTCONNECTIONS,THERMAL ZONE 6,ZoneReturn,1
 Non-Parent Node Connection,NODE 72,ZONEHVAC:EQUIPMENTCONNECTIONS,THERMAL ZONE 6,ZoneInlet,1
 Non-Parent Node Connection,NODE 10,ZONEHVAC:EQUIPMENTCONNECTIONS,THERMAL ZONE 10,ZoneNode,1
 Non-Parent Node Connection,NODE 38,ZONEHVAC:EQUIPMENTCONNECTIONS,THERMAL ZONE 10,ZoneReturn,1
 Non-Parent Node Connection,NODE 37,ZONEHVAC:EQUIPMENTCONNECTIONS,THERMAL ZONE 10,ZoneInlet,1
 Non-Parent Node Connection,NODE 1,ZONEHVAC:EQUIPMENTCONNECTIONS,THERMAL ZONE 1,ZoneNode,1
 Non-Parent Node Connection,NODE 63,ZONEHVAC:EQUIPMENTCONNECTIONS,THERMAL ZONE 1,ZoneReturn,1
 Non-Parent Node Connection,NODE 62,ZONEHVAC:EQUIPMENTCONNECTIONS,THERMAL ZONE 1,ZoneInlet,1
 Non-Parent Node Connection,NODE 8,ZONEHVAC:EQUIPMENTCONNECTIONS,THERMAL ZONE 8,ZoneNode,1
 Non-Parent Node Connection,NODE 43,ZONEHVAC:EQUIPMENTCONNECTIONS,THERMAL ZONE 8,ZoneReturn,1
 Non-Parent Node Connection,NODE 42,ZONEHVAC:EQUIPMENTCONNECTIONS,THERMAL ZONE 8,ZoneInlet,1
 Non-Parent Node Connection,NODE 3,ZONEHVAC:EQUIPMENTCONNECTIONS,THERMAL ZONE 3,ZoneNode,1
 Non-Parent Node Connection,NODE 53,ZONEHVAC:EQUIPMENTCONNECTIONS,THERMAL ZONE 3,ZoneReturn,1
 Non-Parent Node Connection,NODE 52,ZONEHVAC:EQUIPMENTCONNECTIONS,THERMAL ZONE 3,ZoneInlet,1
 Non-Parent Node Connection,NODE 7,ZONEHVAC:EQUIPMENTCONNECTIONS,THERMAL ZONE 7,ZoneNode,1
 Non-Parent Node Connection,NODE 33,ZONEHVAC:EQUIPMENTCONNECTIONS,THERMAL ZONE 7,ZoneReturn,1
 Non-Parent Node Connection,NODE 15,ZONEHVAC:EQUIPMENTCONNECTIONS,THERMAL ZONE 7,ZoneInlet,1
 Non-Parent Node Connection,NODE 13,AIRLOOPHVAC:ZONESPLITTER,AIR LOOP HVAC ZONE SPLITTER 1,Inlet,1
 Non-Parent Node Connection,NODE 34,AIRLOOPHVAC:ZONESPLITTER,AIR LOOP HVAC ZONE SPLITTER 1,Outlet,1
 Non-Parent Node Connection,NODE 39,AIRLOOPHVAC:ZONESPLITTER,AIR LOOP HVAC ZONE SPLITTER 1,Outlet,1
 Non-Parent Node Connection,NODE 44,AIRLOOPHVAC:ZONESPLITTER,AIR LOOP HVAC ZONE SPLITTER 1,Outlet,1
 Non-Parent Node Connection,NODE 49,AIRLOOPHVAC:ZONESPLITTER,AIR LOOP HVAC ZONE SPLITTER 1,Outlet,1
 Non-Parent Node Connection,NODE 54,AIRLOOPHVAC:ZONESPLITTER,AIR LOOP HVAC ZONE SPLITTER 1,Outlet,1
 Non-Parent Node Connection,NODE 59,AIRLOOPHVAC:ZONESPLITTER,AIR LOOP HVAC ZONE SPLITTER 1,Outlet,1
 Non-Parent Node Connection,NODE 64,AIRLOOPHVAC:ZONESPLITTER,AIR LOOP HVAC ZONE SPLITTER 1,Outlet,1
 Non-Parent Node Connection,NODE 69,AIRLOOPHVAC:ZONESPLITTER,AIR LOOP HVAC ZONE SPLITTER 1,Outlet,1
 Non-Parent Node Connection,NODE 74,AIRLOOPHVAC:ZONESPLITTER,AIR LOOP HVAC ZONE SPLITTER 1,Outlet,1
 Non-Parent Node Connection,NODE 79,AIRLOOPHVAC:ZONESPLITTER,AIR LOOP HVAC ZONE SPLITTER 1,Outlet,1
 Non-Parent Node Connection,AIR TERMINAL SINGLE DUCT VAV REHEAT 2 DAMPER OUTLET,AIRTERMINAL:SINGLEDUCT:VAV:REHEAT,AIR TERMINAL SINGLE DUCT VAV REHEAT 2,Outlet,1
 Non-Parent Node Connection,NODE 34,AIRTERMINAL:SINGLEDUCT:VAV:REHEAT,AIR TERMINAL SINGLE DUCT VAV REHEAT 2,Inlet,1
 Non-Parent Node Connection,NODE 26,COIL:HEATING:WATER,COIL HEATING WATER 1,Inlet,2
 Non-Parent Node Connection,NODE 32,COIL:HEATING:WATER,COIL HEATING WATER 1,Outlet,2
 Non-Parent Node Connection,NODE 19,COIL:HEATING:WATER,COIL HEATING WATER 1,Inlet,1
 Non-Parent Node Connection,NODE 20,COIL:HEATING:WATER,COIL HEATING WATER 1,Outlet,1
 Non-Parent Node Connection,NODE 35,COIL:HEATING:WATER,COIL HEATING WATER 3,Inlet,2
 Non-Parent Node Connection,NODE 36,COIL:HEATING:WATER,COIL HEATING WATER 3,Outlet,2
 Non-Parent Node Connection,AIR TERMINAL SINGLE DUCT VAV REHEAT 2 DAMPER OUTLET,COIL:HEATING:WATER,COIL HEATING WATER 3,Inlet,1
 Non-Parent Node Connection,NODE 15,COIL:HEATING:WATER,COIL HEATING WATER 3,Outlet,1
 Non-Parent Node Connection,NODE 40,COIL:HEATING:WATER,COIL HEATING WATER 4,Inlet,2
 Non-Parent Node Connection,NODE 41,COIL:HEATING:WATER,COIL HEATING WATER 4,Outlet,2
 Non-Parent Node Connection,AIR TERMINAL SINGLE DUCT VAV REHEAT 3 DAMPER OUTLET,COIL:HEATING:WATER,COIL HEATING WATER 4,Inlet,1
 Non-Parent Node Connection,NODE 37,COIL:HEATING:WATER,COIL HEATING WATER 4,Outlet,1
 Non-Parent Node Connection,NODE 45,COIL:HEATING:WATER,COIL HEATING WATER 5,Inlet,2
 Non-Parent Node Connection,NODE 46,COIL:HEATING:WATER,COIL HEATING WATER 5,Outlet,2
 Non-Parent Node Connection,AIR TERMINAL SINGLE DUCT VAV REHEAT 4 DAMPER OUTLET,COIL:HEATING:WATER,COIL HEATING WATER 5,Inlet,1
 Non-Parent Node Connection,NODE 42,COIL:HEATING:WATER,COIL HEATING WATER 5,Outlet,1
 Non-Parent Node Connection,NODE 50,COIL:HEATING:WATER,COIL HEATING WATER 6,Inlet,2
 Non-Parent Node Connection,NODE 51,COIL:HEATING:WATER,COIL HEATING WATER 6,Outlet,2
 Non-Parent Node Connection,AIR TERMINAL SINGLE DUCT VAV REHEAT 5 DAMPER OUTLET,COIL:HEATING:WATER,COIL HEATING WATER 6,Inlet,1
 Non-Parent Node Connection,NODE 47,COIL:HEATING:WATER,COIL HEATING WATER 6,Outlet,1
 Non-Parent Node Connection,NODE 55,COIL:HEATING:WATER,COIL HEATING WATER 7,Inlet,2
 Non-Parent Node Connection,NODE 56,COIL:HEATING:WATER,COIL HEATING WATER 7,Outlet,2
 Non-Parent Node Connection,AIR TERMINAL SINGLE DUCT VAV REHEAT 6 DAMPER OUTLET,COIL:HEATING:WATER,COIL HEATING WATER 7,Inlet,1
 Non-Parent Node Connection,NODE 52,COIL:HEATING:WATER,COIL HEATING WATER 7,Outlet,1
 Non-Parent Node Connection,NODE 60,COIL:HEATING:WATER,COIL HEATING WATER 8,Inlet,2
 Non-Parent Node Connection,NODE 61,COIL:HEATING:WATER,COIL HEATING WATER 8,Outlet,2
 Non-Parent Node Connection,AIR TERMINAL SINGLE DUCT VAV REHEAT 7 DAMPER OUTLET,COIL:HEATING:WATER,COIL HEATING WATER 8,Inlet,1
 Non-Parent Node Connection,NODE 57,COIL:HEATING:WATER,COIL HEATING WATER 8,Outlet,1
 Non-Parent Node Connection,NODE 65,COIL:HEATING:WATER,COIL HEATING WATER 9,Inlet,2
 Non-Parent Node Connection,NODE 66,COIL:HEATING:WATER,COIL HEATING WATER 9,Outlet,2
 Non-Parent Node Connection,AIR TERMINAL SINGLE DUCT VAV REHEAT 8 DAMPER OUTLET,COIL:HEATING:WATER,COIL HEATING WATER 9,Inlet,1
 Non-Parent Node Connection,NODE 62,COIL:HEATING:WATER,COIL HEATING WATER 9,Outlet,1
 Non-Parent Node Connection,NODE 70,COIL:HEATING:WATER,COIL HEATING WATER 10,Inlet,2
 Non-Parent Node Connection,NODE 71,COIL:HEATING:WATER,COIL HEATING WATER 10,Outlet,2
 Non-Parent Node Connection,AIR TERMINAL SINGLE DUCT VAV REHEAT 9 DAMPER OUTLET,COIL:HEATING:WATER,COIL HEATING WATER 10,Inlet,1
 Non-Parent Node Connection,NODE 67,COIL:HEATING:WATER,COIL HEATING WATER 10,Outlet,1
 Non-Parent Node Connection,NODE 75,COIL:HEATING:WATER,COIL HEATING WATER 11,Inlet,2
 Non-Parent Node Connection,NODE 76,COIL:HEATING:WATER,COIL HEATING WATER 11,Outlet,2
 Non-Parent Node Connection,AIR TERMINAL SINGLE DUCT VAV REHEAT 10 DAMPER OUTLET,COIL:HEATING:WATER,COIL HEATING WATER 11,Inlet,1
 Non-Parent Node Connection,NODE 72,COIL:HEATING:WATER,COIL HEATING WATER 11,Outlet,1
 Non-Parent Node Connection,NODE 80,COIL:HEATING:WATER,COIL HEATING WATER 12,Inlet,2
 Non-Parent Node Connection,NODE 81,COIL:HEATING:WATER,COIL HEATING WATER 12,Outlet,2
 Non-Parent Node Connection,AIR TERMINAL SINGLE DUCT VAV REHEAT 11 DAMPER OUTLET,COIL:HEATING:WATER,COIL HEATING WATER 12,Inlet,1
 Non-Parent Node Connection,NODE 77,COIL:HEATING:WATER,COIL HEATING WATER 12,Outlet,1
 Non-Parent Node Connection,AIR TERMINAL SINGLE DUCT VAV REHEAT 3 DAMPER OUTLET,AIRTERMINAL:SINGLEDUCT:VAV:REHEAT,AIR TERMINAL SINGLE DUCT VAV REHEAT 3,Outlet,1
 Non-Parent Node Connection,NODE 39,AIRTERMINAL:SINGLEDUCT:VAV:REHEAT,AIR TERMINAL SINGLE DUCT VAV REHEAT 3,Inlet,1
 Non-Parent Node Connection,AIR TERMINAL SINGLE DUCT VAV REHEAT 4 DAMPER OUTLET,AIRTERMINAL:SINGLEDUCT:VAV:REHEAT,AIR TERMINAL SINGLE DUCT VAV REHEAT 4,Outlet,1
 Non-Parent Node Connection,NODE 44,AIRTERMINAL:SINGLEDUCT:VAV:REHEAT,AIR TERMINAL SINGLE DUCT VAV REHEAT 4,Inlet,1
 Non-Parent Node Connection,AIR TERMINAL SINGLE DUCT VAV REHEAT 5 DAMPER OUTLET,AIRTERMINAL:SINGLEDUCT:VAV:REHEAT,AIR TERMINAL SINGLE DUCT VAV REHEAT 5,Outlet,1
 Non-Parent Node Connection,NODE 49,AIRTERMINAL:SINGLEDUCT:VAV:REHEAT,AIR TERMINAL SINGLE DUCT VAV REHEAT 5,Inlet,1
 Non-Parent Node Connection,AIR TERMINAL SINGLE DUCT VAV REHEAT 6 DAMPER OUTLET,AIRTERMINAL:SINGLEDUCT:VAV:REHEAT,AIR TERMINAL SINGLE DUCT VAV REHEAT 6,Outlet,1
 Non-Parent Node Connection,NODE 54,AIRTERMINAL:SINGLEDUCT:VAV:REHEAT,AIR TERMINAL SINGLE DUCT VAV REHEAT 6,Inlet,1
 Non-Parent Node Connection,AIR TERMINAL SINGLE DUCT VAV REHEAT 7 DAMPER OUTLET,AIRTERMINAL:SINGLEDUCT:VAV:REHEAT,AIR TERMINAL SINGLE DUCT VAV REHEAT 7,Outlet,1
 Non-Parent Node Connection,NODE 59,AIRTERMINAL:SINGLEDUCT:VAV:REHEAT,AIR TERMINAL SINGLE DUCT VAV REHEAT 7,Inlet,1
 Non-Parent Node Connection,AIR TERMINAL SINGLE DUCT VAV REHEAT 8 DAMPER OUTLET,AIRTERMINAL:SINGLEDUCT:VAV:REHEAT,AIR TERMINAL SINGLE DUCT VAV REHEAT 8,Outlet,1
 Non-Parent Node Connection,NODE 64,AIRTERMINAL:SINGLEDUCT:VAV:REHEAT,AIR TERMINAL SINGLE DUCT VAV REHEAT 8,Inlet,1
 Non-Parent Node Connection,AIR TERMINAL SINGLE DUCT VAV REHEAT 9 DAMPER OUTLET,AIRTERMINAL:SINGLEDUCT:VAV:REHEAT,AIR TERMINAL SINGLE DUCT VAV REHEAT 9,Outlet,1
 Non-Parent Node Connection,NODE 69,AIRTERMINAL:SINGLEDUCT:VAV:REHEAT,AIR TERMINAL SINGLE DUCT VAV REHEAT 9,Inlet,1
 Non-Parent Node Connection,AIR TERMINAL SINGLE DUCT VAV REHEAT 10 DAMPER OUTLET,AIRTERMINAL:SINGLEDUCT:VAV:REHEAT,AIR TERMINAL SINGLE DUCT VAV REHEAT 10,Outlet,1
 Non-Parent Node Connection,NODE 74,AIRTERMINAL:SINGLEDUCT:VAV:REHEAT,AIR TERMINAL SINGLE DUCT VAV REHEAT 10,Inlet,1
 Non-Parent Node Connection,AIR TERMINAL SINGLE DUCT VAV REHEAT 11 DAMPER OUTLET,AIRTERMINAL:SINGLEDUCT:VAV:REHEAT,AIR TERMINAL SINGLE DUCT VAV REHEAT 11,Outlet,1
 Non-Parent Node Connection,NODE 79,AIRTERMINAL:SINGLEDUCT:VAV:REHEAT,AIR TERMINAL SINGLE DUCT VAV REHEAT 11,Inlet,1
 Non-Parent Node Connection,NODE 14,AIRLOOPHVAC:ZONEMIXER,AIR LOOP HVAC ZONE MIXER 1,Outlet,1
 Non-Parent Node Connection,NODE 33,AIRLOOPHVAC:ZONEMIXER,AIR LOOP HVAC ZONE MIXER 1,Inlet,1
 Non-Parent Node Connection,NODE 38,AIRLOOPHVAC:ZONEMIXER,AIR LOOP HVAC ZONE MIXER 1,Inlet,1
 Non-Parent Node Connection,NODE 43,AIRLOOPHVAC:ZONEMIXER,AIR LOOP HVAC ZONE MIXER 1,Inlet,1
 Non-Parent Node Connection,NODE 48,AIRLOOPHVAC:ZONEMIXER,AIR LOOP HVAC ZONE MIXER 1,Inlet,1
 Non-Parent Node Connection,NODE 53,AIRLOOPHVAC:ZONEMIXER,AIR LOOP HVAC ZONE MIXER 1,Inlet,1
 Non-Parent Node Connection,NODE 58,AIRLOOPHVAC:ZONEMIXER,AIR LOOP HVAC ZONE MIXER 1,Inlet,1
 Non-Parent Node Connection,NODE 63,AIRLOOPHVAC:ZONEMIXER,AIR LOOP HVAC ZONE MIXER 1,Inlet,1
 Non-Parent Node Connection,NODE 68,AIRLOOPHVAC:ZONEMIXER,AIR LOOP HVAC ZONE MIXER 1,Inlet,1
 Non-Parent Node Connection,NODE 73,AIRLOOPHVAC:ZONEMIXER,AIR LOOP HVAC ZONE MIXER 1,Inlet,1
 Non-Parent Node Connection,NODE 78,AIRLOOPHVAC:ZONEMIXER,AIR LOOP HVAC ZONE MIXER 1,Inlet,1
 Non-Parent Node Connection,NODE 18,OUTDOORAIR:MIXER,OUTDOORAIR:MIXER {B129DAB9-BE04-4C8F-9DB3-384D5F6D321E},Outlet,1
 Non-Parent Node Connection,NODE 16,OUTDOORAIR:MIXER,OUTDOORAIR:MIXER {B129DAB9-BE04-4C8F-9DB3-384D5F6D321E},Inlet,1
 Non-Parent Node Connection,NODE 17,OUTDOORAIR:MIXER,OUTDOORAIR:MIXER {B129DAB9-BE04-4C8F-9DB3-384D5F6D321E},ReliefAir,1
 Non-Parent Node Connection,NODE 11,OUTDOORAIR:MIXER,OUTDOORAIR:MIXER {B129DAB9-BE04-4C8F-9DB3-384D5F6D321E},Inlet,1
 Non-Parent Node Connection,NODE 20,CONTROLLER:WATERCOIL,CONTROLLER WATER COIL 1,Sensor,1
 Non-Parent Node Connection,NODE 26,CONTROLLER:WATERCOIL,CONTROLLER WATER COIL 1,Actuator,1
 Non-Parent Node Connection,NODE 18,CONTROLLER:OUTDOORAIR,CONTROLLER OUTDOOR AIR 1,Sensor,1
 Non-Parent Node Connection,NODE 16,CONTROLLER:OUTDOORAIR,CONTROLLER OUTDOOR AIR 1,Actuator,1
 Non-Parent Node Connection,NODE 17,CONTROLLER:OUTDOORAIR,CONTROLLER OUTDOOR AIR 1,Actuator,1
 Non-Parent Node Connection,NODE 11,CONTROLLER:OUTDOORAIR,CONTROLLER OUTDOOR AIR 1,Sensor,1
 Non-Parent Node Connection,NODE 18,COIL:COOLING:DX:TWOSPEED,COIL COOLING DX TWO SPEED 1,Inlet,1
 Non-Parent Node Connection,NODE 19,COIL:COOLING:DX:TWOSPEED,COIL COOLING DX TWO SPEED 1,Outlet,1
 Non-Parent Node Connection,NODE 20,FAN:VARIABLEVOLUME,FAN VARIABLE VOLUME 1,Inlet,1
 Non-Parent Node Connection,NODE 12,FAN:VARIABLEVOLUME,FAN VARIABLE VOLUME 1,Outlet,1
 Non-Parent Node Connection,NODE 29,PIPE:ADIABATIC,PIPE ADIABATIC 1,Inlet,1
 Non-Parent Node Connection,NODE 30,PIPE:ADIABATIC,PIPE ADIABATIC 1,Outlet,1
 Non-Parent Node Connection,NODE 31,PIPE:ADIABATIC,PIPE ADIABATIC 2,Inlet,1
 Non-Parent Node Connection,NODE 22,PIPE:ADIABATIC,PIPE ADIABATIC 2,Outlet,1
 Non-Parent Node Connection,NODE 24,PIPE:ADIABATIC,PLANT LOOP 1 DEMAND INLET PIPE,Inlet,1
 Non-Parent Node Connection,PLANT LOOP 1 DEMAND INLET PIPE NODE,PIPE:ADIABATIC,PLANT LOOP 1 DEMAND INLET PIPE,Outlet,1
 Non-Parent Node Connection,PLANT LOOP 1 DEMAND BYPASS PIPE INLET NODE,PIPE:ADIABATIC,PLANT LOOP 1 DEMAND BYPASS PIPE,Inlet,1
 Non-Parent Node Connection,PLANT LOOP 1 DEMAND BYPASS PIPE OUTLET NODE,PIPE:ADIABATIC,PLANT LOOP 1 DEMAND BYPASS PIPE,Outlet,1
 Non-Parent Node Connection,PLANT LOOP 1 DEMAND OUTLET PIPE NODE,PIPE:ADIABATIC,PLANT LOOP 1 DEMAND OUTLET PIPE,Inlet,1
 Non-Parent Node Connection,NODE 25,PIPE:ADIABATIC,PLANT LOOP 1 DEMAND OUTLET PIPE,Outlet,1
 Non-Parent Node Connection,NODE 23,BOILER:HOTWATER,BOILER HOT WATER 1,Inlet,1
 Non-Parent Node Connection,NODE 28,BOILER:HOTWATER,BOILER HOT WATER 1,Outlet,1
 Non-Parent Node Connection,NODE 21,PUMP:VARIABLESPEED,PUMP VARIABLE SPEED 1,Inlet,1
 Non-Parent Node Connection,NODE 27,PUMP:VARIABLESPEED,PUMP VARIABLE SPEED 1,Outlet,1
