Program Version,EnergyPlus-Linux-OMP-32 7.2.0.006, YMD=2013.02.08 20:38,IDD_Version 7.2.0.006
   ** Severe  ** ManageSizing: Requested System Sizing but did not request Zone Sizing.
   **   ~~~   ** System Sizing cannot be done without Zone Sizing
   **  Fatal  ** Program terminates for preceding conditions.
   ...Summary of Errors that led to program termination:
   ..... Reference severe error count=1
   ..... Last severe error=ManageSizing: Requested System Sizing but did not request Zone Sizing.
   ************* Warning:  Node connection errors not checked - most system input has not been read (see previous warning).
   ************* Fatal error -- final processing.  Program exited before simulations began.  See previous error messages.
   ************* EnergyPlus Warmup Error Summary. During Warmup: 0 Warning; 0 Severe Errors.
   ************* EnergyPlus Sizing Error Summary. During Sizing: 0 Warning; 1 Severe Errors.
   ************* EnergyPlus Terminated--Fatal Error Detected. 0 Warning; 1 Severe Errors; Elapsed Time=00hr 00min 17.00sec
