Program Version,EnergyPlus-Linux-OMP-32 7.2.0.006, YMD=2013.02.08 20:38
