Program Version,EnergyPlus-Linux-OMP-32 7.2.0.006, YMD=2013.04.22 02:54
! <Version>, Version ID
 Version, 7.2
! <Timesteps per Hour>, #TimeSteps, Minutes per TimeStep {minutes}
 Timesteps per Hour,  4, 15
! <System Convergence Limits>, Minimum System TimeStep {minutes}, Max HVAC Iterations,  Minimum Plant Iterations, Maximum Plant Iterations
 System Convergence Limits, 1, 20, 2, 8
! <Simulation Control>, Do Zone Sizing, Do System Sizing, Do Plant Sizing, Do Design Days, Do Weather Simulation
 Simulation Control, Yes, Yes, Yes, Yes, Yes
! <Output Reporting Tolerances>, Tolerance for Time Heating Setpoint Not Met, Tolerance for Time Cooling Setpoint Not Met
 Output Reporting Tolerances, 0.200, 0.200, 
! <Site:GroundTemperature:BuildingSurface>, Months From Jan to Dec {Deg C}
 Site:GroundTemperature:BuildingSurface,  18.00,  18.00,  18.00,  18.00,  18.00,  18.00,  18.00,  18.00,  18.00,  18.00,  18.00,  18.00
! <Site:GroundTemperature:FCfactorMethod>, Months From Jan to Dec {Deg C}
 Site:GroundTemperature:FCfactorMethod,   1.62,   0.54,   2.47,   5.49,  13.39,  19.49,  23.60,  24.85,  22.72,  17.98,  11.66,   5.79
! <Site:GroundTemperature:Shallow>, Months From Jan to Dec {Deg C}
 Site:GroundTemperature:Shallow,  13.00,  13.00,  13.00,  13.00,  13.00,  13.00,  13.00,  13.00,  13.00,  13.00,  13.00,  13.00
! <Site:GroundTemperature:Deep>, Months From Jan to Dec {Deg C}
 Site:GroundTemperature:Deep,  16.00,  16.00,  16.00,  16.00,  16.00,  16.00,  16.00,  16.00,  16.00,  16.00,  16.00,  16.00
! <Site:GroundReflectance>, Months From Jan to Dec {dimensionless}
 Site:GroundReflectance,  0.20,  0.20,  0.20,  0.20,  0.20,  0.20,  0.20,  0.20,  0.20,  0.20,  0.20,  0.20
! <Site:GroundReflectance:SnowModifier>, Normal, Daylighting {dimensionless}
 Site:GroundReflectance:SnowModifier,   1.000,   1.000
! <Site:GroundReflectance:Snow>, Months From Jan to Dec {dimensionless}
 Site:GroundReflectance:Snow,  0.20,  0.20,  0.20,  0.20,  0.20,  0.20,  0.20,  0.20,  0.20,  0.20,  0.20,  0.20
! <Site:GroundReflectance:Snow:Daylighting>, Months From Jan to Dec {dimensionless}
 Site:GroundReflectance:Snow:Daylighting,  0.20,  0.20,  0.20,  0.20,  0.20,  0.20,  0.20,  0.20,  0.20,  0.20,  0.20,  0.20
! <Environment:Weather Station>,Wind Sensor Height Above Ground {m},Wind Speed Profile Exponent {},Wind Speed Profile Boundary Layer Thickness {m},Air Temperature Sensor Height Above Ground {m},Wind Speed Modifier Coefficient [Internal],Temperature Modifier Coefficient [Internal]
Environment:Weather Station,10.000,0.140,270.000,1.500,1.586,9.750E-003
! <Site:Location>, Location Name, Latitude {N+/S- Deg}, Longitude {E+/W- Deg},  Time Zone Number {GMT+/-}, Elevation {m},  Standard Pressure at Elevation {Pa}, Standard RhoAir at Elevation
Site:Location,Philadelphia International Ap PA USA TMY3 WMO#=724080,39.87,-75.23,-5.00,2.00,101301,1.2040
! <Building Information>, Building Name,North Axis {deg},Terrain,  Loads Convergence Tolerance Value,Temperature Convergence Tolerance Value,  Solar Distribution,Maximum Number of Warmup Days,Minimum Number of Warmup Days
 Building Information,Building 1,0.000,Suburbs,4.00000E-002,0.40000,FullExterior,25,6
! <Inside Convection Algorithm>, Algorithm {Simple | TARP | CeilingDiffuser | AdaptiveConvectionAlgorithm}
Inside Convection Algorithm,TARP
! <Outside Convection Algorithm>, Algorithm {SimpleCombined | TARP | MoWitt | DOE-2 | AdaptiveConvectionAlgorithm}
Outside Convection Algorithm,DOE-2
! <Sky Radiance Distribution>, Value {Anisotropic}
Sky Radiance Distribution,Anisotropic
! <Zone Air Solution Algorithm>, Value {ThirdOrderBackwardDifference | AnalyticalSolution | EulerMethod}
 Zone Air Solution Algorithm, ThirdOrderBackwardDifference
! <Zone Air Contaminant Balance Simulation>, Simulation {Yes/No}, Carbon Dioxide Concentration
 Zone Air Carbon Dioxide Balance Simulation, No,N/A
! <Zone Air Contaminant Balance Simulation>, Simulation {Yes/No}, Generic Contaminant Concentration
 Zone Air Generic Contaminant Balance Simulation, No,N/A
! <Environment:Site Atmospheric Variation>,Wind Speed Profile Exponent {},Wind Speed Profile Boundary Layer Thickness {m},Air Temperature Gradient Coefficient {K/m}
Environment:Site Atmospheric Variation,0.220,370.000,6.500000E-003
! <SurfaceGeometry>,Starting Corner,Vertex Input Direction,Coordinate System,Daylight Reference Point Coordinate System,Rectangular (Simple) Surface Coordinate System
 Surface Geometry,UpperLeftCorner,Counterclockwise,RelativeCoordinateSystem,RelativeCoordinateSystem,RelativeToZoneOrigin
! <Surface Heat Transfer Algorithm>, Value {CTF - ConductionTransferFunction | EMPD - MoisturePenetrationDepthConductionTransferFunction | CondFD - ConductionFiniteDifference | HAMT - CombinedHeatAndMoistureFiniteElement} - Description,Inside Surface Max Temperature Limit{C}, Surface Convection Coefficient Lower Limit {W/m2-K}, Surface Convection Coefficient Upper Limit {W/m2-K}
Surface Heat Transfer Algorithm, CTF - ConductionTransferFunction,200,0.10,1000.0
! <Shading Summary>, Number of Fixed Detached Shades, Number of Building Detached Shades, Number of Attached Shades
 Shading Summary,0,0,0
! <Zone Summary>, Number of Zones, Number of Zone Surfaces, Number of SubSurfaces
 Zone Summary,25,170,20
! <Zone Information>,Zone Name,North Axis {deg},Origin X-Coordinate {m},Origin Y-Coordinate {m},Origin Z-Coordinate {m},Centroid X-Coordinate {m},Centroid Y-Coordinate {m},Centroid Z-Coordinate {m},Type,Zone Multiplier,Zone List Multiplier,Minimum X {m},Maximum X {m},Minimum Y {m},Maximum Y {m},Minimum Z {m},Maximum Z {m},Ceiling Height {m},Volume {m3},Zone Inside Convection Algorithm {Simple-Detailed-CeilingDiffuser-TrombeWall},Zone Outside Convection Algorithm {Simple-Detailed-Tarp-MoWitt-DOE-2-BLAST}, Floor Area {m2},Exterior Gross Wall Area {m2},Exterior Net Wall Area {m2},Exterior Window Area {m2}, Number of Surfaces, Number of SubSurfaces, Number of Shading SubSurfaces,  Part of Total Building Area
 Zone Information, THERMAL ZONE 9,0.0,0.00,0.00,4.00,25.00,1.43,6.00,1,1,1,0.00,50.00,0.00,3.00,4.00,8.00,4.00,564.00,TARP,DOE-2,141.00,200.00,130.00,70.00,6,1,0,Yes
 Zone Information, THERMAL ZONE 20,0.0,47.00,3.00,12.00,48.57,25.00,14.00,1,1,1,47.00,50.00,0.00,50.00,12.00,16.00,4.00,564.00,TARP,DOE-2,141.00,200.00,130.00,70.00,6,1,0,Yes
 Zone Information, THERMAL ZONE 11,0.0,0.00,0.00,0.00,1.43,25.00,2.00,1,1,1,0.00,3.00,0.00,50.00,0.00,4.00,4.00,564.00,TARP,DOE-2,141.00,200.00,130.00,70.00,6,1,0,Yes
 Zone Information, THERMAL ZONE 3,0.0,0.00,0.00,8.00,1.43,25.00,10.00,1,1,1,0.00,3.00,0.00,50.00,8.00,12.00,4.00,564.00,TARP,DOE-2,141.00,200.00,130.00,70.00,6,1,0,Yes
 Zone Information, THERMAL ZONE 24,0.0,0.00,0.00,16.00,1.43,25.00,18.00,1,1,1,0.00,3.00,0.00,50.00,16.00,20.00,4.00,564.00,TARP,DOE-2,141.00,200.00,130.00,70.00,6,1,0,Yes
 Zone Information, THERMAL ZONE 4,0.0,0.00,0.00,4.00,1.43,25.00,6.00,1,1,1,0.00,3.00,0.00,50.00,4.00,8.00,4.00,564.00,TARP,DOE-2,141.00,200.00,130.00,70.00,6,1,0,Yes
 Zone Information, THERMAL ZONE 2,0.0,47.00,3.00,0.00,48.57,25.00,2.00,1,1,1,47.00,50.00,0.00,50.00,0.00,4.00,4.00,564.00,TARP,DOE-2,141.00,200.00,130.00,70.00,6,1,0,Yes
 Zone Information, THERMAL ZONE 6,0.0,3.00,47.00,8.00,25.00,48.57,10.00,1,1,1,0.00,50.00,47.00,50.00,8.00,12.00,4.00,564.00,TARP,DOE-2,141.00,200.00,130.00,70.00,6,1,0,Yes
 Zone Information, THERMAL ZONE 19,0.0,0.00,0.00,12.00,25.00,1.43,14.00,1,1,1,0.00,50.00,0.00,3.00,12.00,16.00,4.00,564.00,TARP,DOE-2,141.00,200.00,130.00,70.00,6,1,0,Yes
 Zone Information, THERMAL ZONE 12,0.0,3.00,3.00,8.00,25.00,25.00,10.00,1,1,1,3.00,47.00,3.00,47.00,8.00,12.00,4.00,7744.00,TARP,DOE-2,1936.00,0.00,0.00,0.00,6,0,0,Yes
 Zone Information, THERMAL ZONE 18,0.0,3.00,47.00,0.00,25.00,48.57,2.00,1,1,1,0.00,50.00,47.00,50.00,0.00,4.00,4.00,564.00,TARP,DOE-2,141.00,200.00,130.00,70.00,6,1,0,Yes
 Zone Information, THERMAL ZONE 5,0.0,0.00,0.00,0.00,25.00,1.43,2.00,1,1,1,0.00,50.00,0.00,3.00,0.00,4.00,4.00,564.00,TARP,DOE-2,141.00,200.00,130.00,70.00,6,1,0,Yes
 Zone Information, THERMAL ZONE 8,0.0,0.00,0.00,8.00,25.00,1.43,10.00,1,1,1,0.00,50.00,0.00,3.00,8.00,12.00,4.00,564.00,TARP,DOE-2,141.00,200.00,130.00,70.00,6,1,0,Yes
 Zone Information, THERMAL ZONE 25,0.0,3.00,3.00,0.00,25.00,25.00,2.00,1,1,1,3.00,47.00,3.00,47.00,0.00,4.00,4.00,7744.00,TARP,DOE-2,1936.00,0.00,0.00,0.00,6,0,0,Yes
 Zone Information, THERMAL ZONE 1,0.0,3.00,3.00,16.00,25.00,25.00,18.00,1,1,1,3.00,47.00,3.00,47.00,16.00,20.00,4.00,7744.00,TARP,DOE-2,1936.00,0.00,0.00,0.00,6,0,0,Yes
 Zone Information, THERMAL ZONE 13,0.0,3.00,3.00,12.00,25.00,25.00,14.00,1,1,1,3.00,47.00,3.00,47.00,12.00,16.00,4.00,7744.00,TARP,DOE-2,1936.00,0.00,0.00,0.00,6,0,0,Yes
 Zone Information, THERMAL ZONE 15,0.0,3.00,47.00,12.00,25.00,48.57,14.00,1,1,1,0.00,50.00,47.00,50.00,12.00,16.00,4.00,564.00,TARP,DOE-2,141.00,200.00,130.00,70.00,6,1,0,Yes
 Zone Information, THERMAL ZONE 10,0.0,47.00,3.00,16.00,48.57,25.00,18.00,1,1,1,47.00,50.00,0.00,50.00,16.00,20.00,4.00,564.00,TARP,DOE-2,141.00,200.00,130.00,70.00,6,1,0,Yes
 Zone Information, THERMAL ZONE 7,0.0,47.00,3.00,8.00,48.57,25.00,10.00,1,1,1,47.00,50.00,0.00,50.00,8.00,12.00,4.00,564.00,TARP,DOE-2,141.00,200.00,130.00,70.00,6,1,0,Yes
 Zone Information, THERMAL ZONE 14,0.0,3.00,3.00,4.00,25.00,25.00,6.00,1,1,1,3.00,47.00,3.00,47.00,4.00,8.00,4.00,7744.00,TARP,DOE-2,1936.00,0.00,0.00,0.00,6,0,0,Yes
 Zone Information, THERMAL ZONE 16,0.0,47.00,3.00,4.00,48.57,25.00,6.00,1,1,1,47.00,50.00,0.00,50.00,4.00,8.00,4.00,564.00,TARP,DOE-2,141.00,200.00,130.00,70.00,6,1,0,Yes
 Zone Information, THERMAL ZONE 21,0.0,0.00,0.00,12.00,1.43,25.00,14.00,1,1,1,0.00,3.00,0.00,50.00,12.00,16.00,4.00,564.00,TARP,DOE-2,141.00,200.00,130.00,70.00,6,1,0,Yes
 Zone Information, THERMAL ZONE 23,0.0,0.00,0.00,16.00,25.00,1.43,18.00,1,1,1,0.00,50.00,0.00,3.00,16.00,20.00,4.00,564.00,TARP,DOE-2,141.00,200.00,130.00,70.00,6,1,0,Yes
 Zone Information, THERMAL ZONE 17,0.0,3.00,47.00,4.00,25.00,48.57,6.00,1,1,1,0.00,50.00,47.00,50.00,4.00,8.00,4.00,564.00,TARP,DOE-2,141.00,200.00,130.00,70.00,6,1,0,Yes
 Zone Information, THERMAL ZONE 22,0.0,3.00,47.00,16.00,25.00,48.57,18.00,1,1,1,0.00,50.00,47.00,50.00,16.00,20.00,4.00,564.00,TARP,DOE-2,141.00,200.00,130.00,70.00,6,1,0,Yes
! <Zone Internal Gains/Equipment Information - Nominal>,Zone Name, Floor Area {m2},# Occupants,Area per Occupant {m2/person},Occupant per Area {person/m2},Interior Lighting {W/m2},Electric Load {W/m2},Gas Load {W/m2},Other Load {W/m2},Hot Water Eq {W/m2},Steam Equipment {W/m2},Sum Loads per Area {W/m2},Outdoor Controlled Baseboard Heat
 Zone Internal Gains, THERMAL ZONE 9,141.00,0.0,N/A,0.000,0.000,0.000,0.000,0.000,0.000,0.000,0.000,No
 Zone Internal Gains, THERMAL ZONE 20,141.00,0.0,N/A,0.000,0.000,0.000,0.000,0.000,0.000,0.000,0.000,No
 Zone Internal Gains, THERMAL ZONE 11,141.00,0.0,N/A,0.000,0.000,0.000,0.000,0.000,0.000,0.000,0.000,No
 Zone Internal Gains, THERMAL ZONE 3,141.00,0.0,N/A,0.000,0.000,0.000,0.000,0.000,0.000,0.000,0.000,No
 Zone Internal Gains, THERMAL ZONE 24,141.00,0.0,N/A,0.000,0.000,0.000,0.000,0.000,0.000,0.000,0.000,No
 Zone Internal Gains, THERMAL ZONE 4,141.00,0.0,N/A,0.000,0.000,0.000,0.000,0.000,0.000,0.000,0.000,No
 Zone Internal Gains, THERMAL ZONE 2,141.00,0.0,N/A,0.000,0.000,0.000,0.000,0.000,0.000,0.000,0.000,No
 Zone Internal Gains, THERMAL ZONE 6,141.00,0.0,N/A,0.000,0.000,0.000,0.000,0.000,0.000,0.000,0.000,No
 Zone Internal Gains, THERMAL ZONE 19,141.00,0.0,N/A,0.000,0.000,0.000,0.000,0.000,0.000,0.000,0.000,No
 Zone Internal Gains, THERMAL ZONE 12,1936.00,0.0,N/A,0.000,0.000,0.000,0.000,0.000,0.000,0.000,0.000,No
 Zone Internal Gains, THERMAL ZONE 18,141.00,0.0,N/A,0.000,0.000,0.000,0.000,0.000,0.000,0.000,0.000,No
 Zone Internal Gains, THERMAL ZONE 5,141.00,0.0,N/A,0.000,0.000,0.000,0.000,0.000,0.000,0.000,0.000,No
 Zone Internal Gains, THERMAL ZONE 8,141.00,0.0,N/A,0.000,0.000,0.000,0.000,0.000,0.000,0.000,0.000,No
 Zone Internal Gains, THERMAL ZONE 25,1936.00,0.0,N/A,0.000,0.000,0.000,0.000,0.000,0.000,0.000,0.000,No
 Zone Internal Gains, THERMAL ZONE 1,1936.00,0.0,N/A,0.000,0.000,0.000,0.000,0.000,0.000,0.000,0.000,No
 Zone Internal Gains, THERMAL ZONE 13,1936.00,0.0,N/A,0.000,0.000,0.000,0.000,0.000,0.000,0.000,0.000,No
 Zone Internal Gains, THERMAL ZONE 15,141.00,0.0,N/A,0.000,0.000,0.000,0.000,0.000,0.000,0.000,0.000,No
 Zone Internal Gains, THERMAL ZONE 10,141.00,0.0,N/A,0.000,0.000,0.000,0.000,0.000,0.000,0.000,0.000,No
 Zone Internal Gains, THERMAL ZONE 7,141.00,0.0,N/A,0.000,0.000,0.000,0.000,0.000,0.000,0.000,0.000,No
 Zone Internal Gains, THERMAL ZONE 14,1936.00,0.0,N/A,0.000,0.000,0.000,0.000,0.000,0.000,0.000,0.000,No
 Zone Internal Gains, THERMAL ZONE 16,141.00,0.0,N/A,0.000,0.000,0.000,0.000,0.000,0.000,0.000,0.000,No
 Zone Internal Gains, THERMAL ZONE 21,141.00,0.0,N/A,0.000,0.000,0.000,0.000,0.000,0.000,0.000,0.000,No
 Zone Internal Gains, THERMAL ZONE 23,141.00,0.0,N/A,0.000,0.000,0.000,0.000,0.000,0.000,0.000,0.000,No
 Zone Internal Gains, THERMAL ZONE 17,141.00,0.0,N/A,0.000,0.000,0.000,0.000,0.000,0.000,0.000,0.000,No
 Zone Internal Gains, THERMAL ZONE 22,141.00,0.0,N/A,0.000,0.000,0.000,0.000,0.000,0.000,0.000,0.000,No
! <Shadowing/Sun Position Calculations> [Annual Simulations], Value {days}, Allowable Number Figures in Shadow Overlap {}, Polygon Clipping Algorithm, Sky Diffuse Modeling Algorithm
Shadowing/Sun Position Calculations,20,15000,SutherlandHodgman,SimpleSkyDiffuseModeling
! <RoomAir Model>, Zone Name, Mixing/Mundt/UCSDDV/UCSDCV/UCSDUFI/UCSDUFE/User Defined
RoomAir Model,THERMAL ZONE 9,Mixing/Well-Stirred
RoomAir Model,THERMAL ZONE 20,Mixing/Well-Stirred
RoomAir Model,THERMAL ZONE 11,Mixing/Well-Stirred
RoomAir Model,THERMAL ZONE 3,Mixing/Well-Stirred
RoomAir Model,THERMAL ZONE 24,Mixing/Well-Stirred
RoomAir Model,THERMAL ZONE 4,Mixing/Well-Stirred
RoomAir Model,THERMAL ZONE 2,Mixing/Well-Stirred
RoomAir Model,THERMAL ZONE 6,Mixing/Well-Stirred
RoomAir Model,THERMAL ZONE 19,Mixing/Well-Stirred
RoomAir Model,THERMAL ZONE 12,Mixing/Well-Stirred
RoomAir Model,THERMAL ZONE 18,Mixing/Well-Stirred
RoomAir Model,THERMAL ZONE 5,Mixing/Well-Stirred
RoomAir Model,THERMAL ZONE 8,Mixing/Well-Stirred
RoomAir Model,THERMAL ZONE 25,Mixing/Well-Stirred
RoomAir Model,THERMAL ZONE 1,Mixing/Well-Stirred
RoomAir Model,THERMAL ZONE 13,Mixing/Well-Stirred
RoomAir Model,THERMAL ZONE 15,Mixing/Well-Stirred
RoomAir Model,THERMAL ZONE 10,Mixing/Well-Stirred
RoomAir Model,THERMAL ZONE 7,Mixing/Well-Stirred
RoomAir Model,THERMAL ZONE 14,Mixing/Well-Stirred
RoomAir Model,THERMAL ZONE 16,Mixing/Well-Stirred
RoomAir Model,THERMAL ZONE 21,Mixing/Well-Stirred
RoomAir Model,THERMAL ZONE 23,Mixing/Well-Stirred
RoomAir Model,THERMAL ZONE 17,Mixing/Well-Stirred
RoomAir Model,THERMAL ZONE 22,Mixing/Well-Stirred
! <AirflowNetwork Model:Control>, No Multizone or Distribution/Multizone with Distribution/Multizone without Distribution/Multizone with Distribution only during Fan Operation
AirflowNetwork Model:Control,NoMultizoneOrDistribution
! <Zone Volume Capacitance Multiplier>, Sensible Heat Capacity Multiplier, Moisture Capacity Multiplier, Carbon Dioxide Capacity Multiplier, Generic Contaminant Capacity Multiplier
Zone Volume Capacitance Multiplier,   1.000 ,   1.000,   1.000,   1.000
! <Load Timesteps in Zone Design Calculation Averaging Window>, Value
 Load Timesteps in Zone Design Calculation Averaging Window,    4
! <Heating Sizing Factor Information>, Sizing Factor ID, Value
 Heating Sizing Factor Information, Global,   1.2500    
 Heating Sizing Factor Information, Zone THERMAL ZONE 9,   1.2500    
 Heating Sizing Factor Information, Zone THERMAL ZONE 20,   1.2500    
 Heating Sizing Factor Information, Zone THERMAL ZONE 11,   1.2500    
 Heating Sizing Factor Information, Zone THERMAL ZONE 3,   1.2500    
 Heating Sizing Factor Information, Zone THERMAL ZONE 24,   1.2500    
 Heating Sizing Factor Information, Zone THERMAL ZONE 4,   1.2500    
 Heating Sizing Factor Information, Zone THERMAL ZONE 2,   1.2500    
 Heating Sizing Factor Information, Zone THERMAL ZONE 6,   1.2500    
 Heating Sizing Factor Information, Zone THERMAL ZONE 19,   1.2500    
 Heating Sizing Factor Information, Zone THERMAL ZONE 12,   1.2500    
 Heating Sizing Factor Information, Zone THERMAL ZONE 18,   1.2500    
 Heating Sizing Factor Information, Zone THERMAL ZONE 5,   1.2500    
 Heating Sizing Factor Information, Zone THERMAL ZONE 8,   1.2500    
 Heating Sizing Factor Information, Zone THERMAL ZONE 25,   1.2500    
 Heating Sizing Factor Information, Zone THERMAL ZONE 1,   1.2500    
 Heating Sizing Factor Information, Zone THERMAL ZONE 13,   1.2500    
 Heating Sizing Factor Information, Zone THERMAL ZONE 15,   1.2500    
 Heating Sizing Factor Information, Zone THERMAL ZONE 10,   1.2500    
 Heating Sizing Factor Information, Zone THERMAL ZONE 7,   1.2500    
 Heating Sizing Factor Information, Zone THERMAL ZONE 14,   1.2500    
 Heating Sizing Factor Information, Zone THERMAL ZONE 16,   1.2500    
 Heating Sizing Factor Information, Zone THERMAL ZONE 21,   1.2500    
 Heating Sizing Factor Information, Zone THERMAL ZONE 23,   1.2500    
 Heating Sizing Factor Information, Zone THERMAL ZONE 17,   1.2500    
 Heating Sizing Factor Information, Zone THERMAL ZONE 22,   1.2500    
! <Cooling Sizing Factor Information>, Sizing Factor ID, Value
 Cooling Sizing Factor Information, Global,   1.1500    
 Cooling Sizing Factor Information, Zone THERMAL ZONE 9,   1.1500    
 Cooling Sizing Factor Information, Zone THERMAL ZONE 20,   1.1500    
 Cooling Sizing Factor Information, Zone THERMAL ZONE 11,   1.1500    
 Cooling Sizing Factor Information, Zone THERMAL ZONE 3,   1.1500    
 Cooling Sizing Factor Information, Zone THERMAL ZONE 24,   1.1500    
 Cooling Sizing Factor Information, Zone THERMAL ZONE 4,   1.1500    
 Cooling Sizing Factor Information, Zone THERMAL ZONE 2,   1.1500    
 Cooling Sizing Factor Information, Zone THERMAL ZONE 6,   1.1500    
 Cooling Sizing Factor Information, Zone THERMAL ZONE 19,   1.1500    
 Cooling Sizing Factor Information, Zone THERMAL ZONE 12,   1.1500    
 Cooling Sizing Factor Information, Zone THERMAL ZONE 18,   1.1500    
 Cooling Sizing Factor Information, Zone THERMAL ZONE 5,   1.1500    
 Cooling Sizing Factor Information, Zone THERMAL ZONE 8,   1.1500    
 Cooling Sizing Factor Information, Zone THERMAL ZONE 25,   1.1500    
 Cooling Sizing Factor Information, Zone THERMAL ZONE 1,   1.1500    
 Cooling Sizing Factor Information, Zone THERMAL ZONE 13,   1.1500    
 Cooling Sizing Factor Information, Zone THERMAL ZONE 15,   1.1500    
 Cooling Sizing Factor Information, Zone THERMAL ZONE 10,   1.1500    
 Cooling Sizing Factor Information, Zone THERMAL ZONE 7,   1.1500    
 Cooling Sizing Factor Information, Zone THERMAL ZONE 14,   1.1500    
 Cooling Sizing Factor Information, Zone THERMAL ZONE 16,   1.1500    
 Cooling Sizing Factor Information, Zone THERMAL ZONE 21,   1.1500    
 Cooling Sizing Factor Information, Zone THERMAL ZONE 23,   1.1500    
 Cooling Sizing Factor Information, Zone THERMAL ZONE 17,   1.1500    
 Cooling Sizing Factor Information, Zone THERMAL ZONE 22,   1.1500    
! <Zone Sizing Information>, Zone Name, Load Type, Calc Des Load {W}, User Des Load {W}, Calc Des Air Flow Rate {m3/s}, User Des Air Flow Rate {m3/s}, Design Day Name, Date/Time of Peak, Temperature at Peak {C}, Humidity Ratio at Peak {kgWater/kgDryAir}, Floor Area {m2}, # Occupants, Calc Outdoor Air Flow Rate {m3/s}
 Zone Sizing Information, THERMAL ZONE 9, Cooling, 7033.22299, 8088.20644, 0.40881, 0.47013, PHILADELPHIA INTERNATIONAL AP ANN CLG .4% CONDNS DB=>MWB, 7/21 14:30:00, 34.00000, 1.48422E-002, 141.00000, 0.00000, 0.00000
 Zone Sizing Information, THERMAL ZONE 9, Heating, 6081.63290, 7602.04113, 0.30959, 0.38699, PHILADELPHIA INTERNATIONAL AP ANN HTG 99.6% CONDNS DB, 1/21 24:00:00, -10.80000, 1.48961E-003, 141.00000, 0.00000, 0.00000
 Zone Sizing Information, THERMAL ZONE 20, Cooling, 9354.59693, 10757.78647, 0.54374, 0.62530, PHILADELPHIA INTERNATIONAL AP ANN CLG .4% CONDNS DB=>MWB, 7/21 10:45:00, 31.48550, 1.48422E-002, 141.00000, 0.00000, 0.00000
 Zone Sizing Information, THERMAL ZONE 20, Heating, 6134.20228, 7667.75285, 0.31227, 0.39033, PHILADELPHIA INTERNATIONAL AP ANN HTG 99.6% CONDNS DB, 1/21 24:00:00, -10.80000, 1.48961E-003, 141.00000, 0.00000, 0.00000
 Zone Sizing Information, THERMAL ZONE 11, Cooling, 6403.53248, 7364.06235, 0.37221, 0.42804, PHILADELPHIA INTERNATIONAL AP ANN CLG .4% CONDNS DB=>MWB, 7/21 16:45:00, 32.87200, 1.48422E-002, 141.00000, 0.00000, 0.00000
 Zone Sizing Information, THERMAL ZONE 11, Heating, 6859.83194, 8574.78992, 0.34921, 0.43651, PHILADELPHIA INTERNATIONAL AP ANN HTG 99.6% CONDNS DB, 1/21 24:00:00, -10.80000, 1.48961E-003, 141.00000, 0.00000, 0.00000
 Zone Sizing Information, THERMAL ZONE 3, Cooling, 10433.95084, 11999.04347, 0.60647, 0.69745, PHILADELPHIA INTERNATIONAL AP ANN CLG .4% CONDNS DB=>MWB, 7/21 17:15:00, 32.44900, 1.48422E-002, 141.00000, 0.00000, 0.00000
 Zone Sizing Information, THERMAL ZONE 3, Heating, 6149.18572, 7686.48215, 0.31303, 0.39129, PHILADELPHIA INTERNATIONAL AP ANN HTG 99.6% CONDNS DB, 1/21 24:00:00, -10.80000, 1.48961E-003, 141.00000, 0.00000, 0.00000
 Zone Sizing Information, THERMAL ZONE 24, Cooling, 10704.67887, 12310.38070, 0.62221, 0.71554, PHILADELPHIA INTERNATIONAL AP ANN CLG .4% CONDNS DB=>MWB, 7/21 17:15:00, 32.44900, 1.48422E-002, 141.00000, 0.00000, 0.00000
 Zone Sizing Information, THERMAL ZONE 24, Heating, 7200.35206, 9000.44007, 0.36654, 0.45818, PHILADELPHIA INTERNATIONAL AP ANN HTG 99.6% CONDNS DB, 1/21 24:00:00, -10.80000, 1.48961E-003, 141.00000, 0.00000, 0.00000
 Zone Sizing Information, THERMAL ZONE 4, Cooling, 9671.64754, 11122.39467, 0.56217, 0.64649, PHILADELPHIA INTERNATIONAL AP ANN CLG .4% CONDNS DB=>MWB, 7/21 17:15:00, 32.44900, 1.48422E-002, 141.00000, 0.00000, 0.00000
 Zone Sizing Information, THERMAL ZONE 4, Heating, 6172.79245, 7715.99057, 0.31423, 0.39279, PHILADELPHIA INTERNATIONAL AP ANN HTG 99.6% CONDNS DB, 1/21 24:00:00, -10.80000, 1.48961E-003, 141.00000, 0.00000, 0.00000
 Zone Sizing Information, THERMAL ZONE 2, Cooling, 5038.49613, 5794.27055, 0.29286, 0.33679, PHILADELPHIA INTERNATIONAL AP ANN CLG .4% CONDNS DB=>MWB, 7/21 10:15:00, 30.78050, 1.48422E-002, 141.00000, 0.00000, 0.00000
 Zone Sizing Information, THERMAL ZONE 2, Heating, 6802.38506, 8502.98132, 0.34628, 0.43285, PHILADELPHIA INTERNATIONAL AP ANN HTG 99.6% CONDNS DB, 1/21 24:00:00, -10.80000, 1.48961E-003, 141.00000, 0.00000, 0.00000
 Zone Sizing Information, THERMAL ZONE 6, Cooling, 3083.38144, 3545.88866, 0.17922, 0.20611, PHILADELPHIA INTERNATIONAL AP ANN CLG .4% CONDNS DB=>MWB, 7/21 18:15:00, 31.39150, 1.48422E-002, 141.00000, 0.00000, 0.00000
 Zone Sizing Information, THERMAL ZONE 6, Heating, 6149.18572, 7686.48215, 0.31303, 0.39129, PHILADELPHIA INTERNATIONAL AP ANN HTG 99.6% CONDNS DB, 1/21 24:00:00, -10.80000, 1.48961E-003, 141.00000, 0.00000, 0.00000
 Zone Sizing Information, THERMAL ZONE 19, Cooling, 8043.79478, 9250.36400, 0.46755, 0.53768, PHILADELPHIA INTERNATIONAL AP ANN CLG .4% CONDNS DB=>MWB, 7/21 14:15:00, 34.00000, 1.48422E-002, 141.00000, 0.00000, 0.00000
 Zone Sizing Information, THERMAL ZONE 19, Heating, 6134.20228, 7667.75285, 0.31227, 0.39033, PHILADELPHIA INTERNATIONAL AP ANN HTG 99.6% CONDNS DB, 1/21 24:00:00, -10.80000, 1.48961E-003, 141.00000, 0.00000, 0.00000
 Zone Sizing Information, THERMAL ZONE 12, Cooling, 522.92602, 601.36492, 3.03954E-002, 3.49547E-002, PHILADELPHIA INTERNATIONAL AP ANN CLG .4% CONDNS DB=>MWB, 7/21 17:15:00, 32.44900, 1.48422E-002, 1936.00000, 0.00000, 0.00000
 Zone Sizing Information, THERMAL ZONE 12, Heating, 3849.55265, 4811.94081, 0.19596, 0.24496, PHILADELPHIA INTERNATIONAL AP ANN HTG 99.6% CONDNS DB, 1/21 24:00:00, -10.80000, 1.48961E-003, 1936.00000, 0.00000, 0.00000
 Zone Sizing Information, THERMAL ZONE 18, Heating, 6859.83194, 8574.78992, 0.34921, 0.43651, PHILADELPHIA INTERNATIONAL AP ANN HTG 99.6% CONDNS DB, 1/21 24:00:00, -10.80000, 1.48961E-003, 141.00000, 0.00000, 0.00000
 Zone Sizing Information, THERMAL ZONE 5, Cooling, 3730.96916, 4290.61454, 0.21686, 0.24939, PHILADELPHIA INTERNATIONAL AP ANN CLG .4% CONDNS DB=>MWB, 7/21 13:45:00, 33.88250, 1.48422E-002, 141.00000, 0.00000, 0.00000
 Zone Sizing Information, THERMAL ZONE 5, Heating, 6802.38506, 8502.98132, 0.34628, 0.43285, PHILADELPHIA INTERNATIONAL AP ANN HTG 99.6% CONDNS DB, 1/21 24:00:00, -10.80000, 1.48961E-003, 141.00000, 0.00000, 0.00000
 Zone Sizing Information, THERMAL ZONE 8, Cooling, 7858.69509, 9037.49935, 0.45679, 0.52531, PHILADELPHIA INTERNATIONAL AP ANN CLG .4% CONDNS DB=>MWB, 7/21 14:15:00, 34.00000, 1.48422E-002, 141.00000, 0.00000, 0.00000
 Zone Sizing Information, THERMAL ZONE 8, Heating, 6044.44194, 7555.55243, 0.30770, 0.38462, PHILADELPHIA INTERNATIONAL AP ANN HTG 99.6% CONDNS DB, 1/21 24:00:00, -10.80000, 1.48961E-003, 141.00000, 0.00000, 0.00000
 Zone Sizing Information, THERMAL ZONE 25, Heating, 17372.30937, 21715.38672, 0.88435, 1.10544, PHILADELPHIA INTERNATIONAL AP ANN HTG 99.6% CONDNS DB, 1/21 24:00:00, -10.80000, 1.48961E-003, 1936.00000, 0.00000, 0.00000
 Zone Sizing Information, THERMAL ZONE 1, Cooling, 5384.02031, 6191.62336, 0.31295, 0.35989, PHILADELPHIA INTERNATIONAL AP ANN CLG .4% CONDNS DB=>MWB, 7/21 19:30:00, 29.81700, 1.48422E-002, 1936.00000, 0.00000, 0.00000
 Zone Sizing Information, THERMAL ZONE 1, Heating, 15185.88445, 18982.35556, 0.77305, 0.96631, PHILADELPHIA INTERNATIONAL AP ANN HTG 99.6% CONDNS DB, 1/21 24:00:00, -10.80000, 1.48961E-003, 1936.00000, 0.00000, 0.00000
 Zone Sizing Information, THERMAL ZONE 13, Cooling, 2557.33045, 2940.93001, 0.14865, 0.17094, PHILADELPHIA INTERNATIONAL AP ANN CLG .4% CONDNS DB=>MWB, 7/21 17:15:00, 32.44900, 1.48422E-002, 1936.00000, 0.00000, 0.00000
 Zone Sizing Information, THERMAL ZONE 13, Heating, 5021.81086, 6277.26357, 0.25564, 0.31955, PHILADELPHIA INTERNATIONAL AP ANN HTG 99.6% CONDNS DB, 1/21 24:00:00, -10.80000, 1.48961E-003, 1936.00000, 0.00000, 0.00000
 Zone Sizing Information, THERMAL ZONE 15, Cooling, 3242.55661, 3728.94010, 0.18847, 0.21675, PHILADELPHIA INTERNATIONAL AP ANN CLG .4% CONDNS DB=>MWB, 7/21 18:15:00, 31.39150, 1.48422E-002, 141.00000, 0.00000, 0.00000
 Zone Sizing Information, THERMAL ZONE 15, Heating, 6246.85766, 7808.57207, 0.31800, 0.39750, PHILADELPHIA INTERNATIONAL AP ANN HTG 99.6% CONDNS DB, 1/21 24:00:00, -10.80000, 1.48961E-003, 141.00000, 0.00000, 0.00000
 Zone Sizing Information, THERMAL ZONE 10, Cooling, 9258.22914, 10646.96351, 0.53814, 0.61886, PHILADELPHIA INTERNATIONAL AP ANN CLG .4% CONDNS DB=>MWB, 7/21 10:45:00, 31.48550, 1.48422E-002, 141.00000, 0.00000, 0.00000
 Zone Sizing Information, THERMAL ZONE 10, Heating, 7084.43664, 8855.54580, 0.36064, 0.45080, PHILADELPHIA INTERNATIONAL AP ANN HTG 99.6% CONDNS DB, 1/21 24:00:00, -10.80000, 1.48961E-003, 141.00000, 0.00000, 0.00000
 Zone Sizing Information, THERMAL ZONE 7, Cooling, 9148.28935, 10520.53275, 0.53175, 0.61151, PHILADELPHIA INTERNATIONAL AP ANN CLG .4% CONDNS DB=>MWB, 7/21 10:45:00, 31.48550, 1.48422E-002, 141.00000, 0.00000, 0.00000
 Zone Sizing Information, THERMAL ZONE 7, Heating, 6044.44194, 7555.55243, 0.30770, 0.38462, PHILADELPHIA INTERNATIONAL AP ANN HTG 99.6% CONDNS DB, 1/21 24:00:00, -10.80000, 1.48961E-003, 141.00000, 0.00000, 0.00000
 Zone Sizing Information, THERMAL ZONE 14, Heating, 5256.80004, 6571.00005, 0.26760, 0.33450, PHILADELPHIA INTERNATIONAL AP ANN HTG 99.6% CONDNS DB, 1/21 24:00:00, -10.80000, 1.48961E-003, 1936.00000, 0.00000, 0.00000
 Zone Sizing Information, THERMAL ZONE 16, Cooling, 8274.49790, 9515.67258, 0.48096, 0.55310, PHILADELPHIA INTERNATIONAL AP ANN CLG .4% CONDNS DB=>MWB, 7/21 10:45:00, 31.48550, 1.48422E-002, 141.00000, 0.00000, 0.00000
 Zone Sizing Information, THERMAL ZONE 16, Heating, 6081.63290, 7602.04113, 0.30959, 0.38699, PHILADELPHIA INTERNATIONAL AP ANN HTG 99.6% CONDNS DB, 1/21 24:00:00, -10.80000, 1.48961E-003, 141.00000, 0.00000, 0.00000
 Zone Sizing Information, THERMAL ZONE 21, Cooling, 10588.51268, 12176.78958, 0.61546, 0.70778, PHILADELPHIA INTERNATIONAL AP ANN CLG .4% CONDNS DB=>MWB, 7/21 17:15:00, 32.44900, 1.48422E-002, 141.00000, 0.00000, 0.00000
 Zone Sizing Information, THERMAL ZONE 21, Heating, 6246.85766, 7808.57207, 0.31800, 0.39750, PHILADELPHIA INTERNATIONAL AP ANN HTG 99.6% CONDNS DB, 1/21 24:00:00, -10.80000, 1.48961E-003, 141.00000, 0.00000, 0.00000
 Zone Sizing Information, THERMAL ZONE 23, Cooling, 8035.15206, 9240.42487, 0.46704, 0.53710, PHILADELPHIA INTERNATIONAL AP ANN CLG .4% CONDNS DB=>MWB, 7/21 14:15:00, 34.00000, 1.48422E-002, 141.00000, 0.00000, 0.00000
 Zone Sizing Information, THERMAL ZONE 23, Heating, 7084.43664, 8855.54580, 0.36064, 0.45080, PHILADELPHIA INTERNATIONAL AP ANN HTG 99.6% CONDNS DB, 1/21 24:00:00, -10.80000, 1.48961E-003, 141.00000, 0.00000, 0.00000
 Zone Sizing Information, THERMAL ZONE 17, Cooling, 2368.56463, 2723.84933, 0.13767, 0.15832, PHILADELPHIA INTERNATIONAL AP ANN CLG .4% CONDNS DB=>MWB, 7/21 18:15:00, 31.39150, 1.48422E-002, 141.00000, 0.00000, 0.00000
 Zone Sizing Information, THERMAL ZONE 17, Heating, 6172.79245, 7715.99057, 0.31423, 0.39279, PHILADELPHIA INTERNATIONAL AP ANN HTG 99.6% CONDNS DB, 1/21 24:00:00, -10.80000, 1.48961E-003, 141.00000, 0.00000, 0.00000
 Zone Sizing Information, THERMAL ZONE 22, Cooling, 3497.19560, 4021.77494, 0.20328, 0.23377, PHILADELPHIA INTERNATIONAL AP ANN CLG .4% CONDNS DB=>MWB, 7/21 18:15:00, 31.39150, 1.48422E-002, 141.00000, 0.00000, 0.00000
 Zone Sizing Information, THERMAL ZONE 22, Heating, 7200.35206, 9000.44007, 0.36654, 0.45818, PHILADELPHIA INTERNATIONAL AP ANN HTG 99.6% CONDNS DB, 1/21 24:00:00, -10.80000, 1.48961E-003, 141.00000, 0.00000, 0.00000
! <System Sizing Information>, System Name, Field Description, Value
 System Sizing Information, AIR LOOP HVAC 1, Calculated Cooling Design Air Flow Rate [m3/s], 9.64118
 System Sizing Information, AIR LOOP HVAC 1, User Cooling Design Air Flow Rate [m3/s], 9.64118
 System Sizing Information, AIR LOOP HVAC 1, Calculated Heating Design Air Flow Rate [m3/s], 11.21447
 System Sizing Information, AIR LOOP HVAC 1, User Heating Design Air Flow Rate [m3/s], 11.21447
! <Component Sizing Information>, Component Type, Component Name, Input Field Description, Value
 Component Sizing Information, AirTerminal:SingleDuct:VAV:Reheat, AIR TERMINAL SINGLE DUCT VAV REHEAT 8, Maximum Air Flow Rate [m3/s], 0.47013
 Component Sizing Information, AirTerminal:SingleDuct:VAV:Reheat, AIR TERMINAL SINGLE DUCT VAV REHEAT 8, Maximum Flow per Zone Floor Area during Reheat [m3/s-m2], 2.03200E-003
 Component Sizing Information, AirTerminal:SingleDuct:VAV:Reheat, AIR TERMINAL SINGLE DUCT VAV REHEAT 8, Maximum Flow Fraction during Reheat [], 0.60943
 Component Sizing Information, AirTerminal:SingleDuct:VAV:Reheat, AIR TERMINAL SINGLE DUCT VAV REHEAT 8, Maximum Reheat Water Flow Rate [m3/s], 2.85528E-004
 Component Sizing Information, AirTerminal:SingleDuct:VAV:Reheat, AIR TERMINAL SINGLE DUCT VAV REHEAT 8, Reheat Coil Sizing Air Volume Flow Rate [m3/s], 0.38699
 Component Sizing Information, Coil:Heating:Water, COIL HEATING WATER 9, Maximum Water Flow Rate [m3/s], 2.85528E-004
 Component Sizing Information, Coil:Heating:Water, COIL HEATING WATER 9, Design Coil Load [W], 13142.95334
 Component Sizing Information, Coil:Heating:Water, COIL HEATING WATER 9, U-Factor Times Area Value [W/K], 334.39523
! <Water Heating Coil Capacity Information>,Component Type,Name,Nominal Total Capacity {W}
Water Heating Coil Capacity Information,Coil:Heating:Water,COIL HEATING WATER 9,14180.06
 Component Sizing Information, AirTerminal:SingleDuct:VAV:Reheat, AIR TERMINAL SINGLE DUCT VAV REHEAT 21, Maximum Air Flow Rate [m3/s], 0.62530
 Component Sizing Information, AirTerminal:SingleDuct:VAV:Reheat, AIR TERMINAL SINGLE DUCT VAV REHEAT 21, Maximum Flow per Zone Floor Area during Reheat [m3/s-m2], 2.03200E-003
 Component Sizing Information, AirTerminal:SingleDuct:VAV:Reheat, AIR TERMINAL SINGLE DUCT VAV REHEAT 21, Maximum Flow Fraction during Reheat [], 0.45820
 Component Sizing Information, AirTerminal:SingleDuct:VAV:Reheat, AIR TERMINAL SINGLE DUCT VAV REHEAT 21, Maximum Reheat Water Flow Rate [m3/s], 2.87996E-004
 Component Sizing Information, AirTerminal:SingleDuct:VAV:Reheat, AIR TERMINAL SINGLE DUCT VAV REHEAT 21, Reheat Coil Sizing Air Volume Flow Rate [m3/s], 0.39033
 Component Sizing Information, Coil:Heating:Water, COIL HEATING WATER 22, Maximum Water Flow Rate [m3/s], 2.87996E-004
 Component Sizing Information, Coil:Heating:Water, COIL HEATING WATER 22, Design Coil Load [W], 13256.56047
 Component Sizing Information, Coil:Heating:Water, COIL HEATING WATER 22, U-Factor Times Area Value [W/K], 444.76517
Water Heating Coil Capacity Information,Coil:Heating:Water,COIL HEATING WATER 22,16924.61
 Component Sizing Information, AirTerminal:SingleDuct:VAV:Reheat, AIR TERMINAL SINGLE DUCT VAV REHEAT 22, Maximum Air Flow Rate [m3/s], 0.43651
 Component Sizing Information, AirTerminal:SingleDuct:VAV:Reheat, AIR TERMINAL SINGLE DUCT VAV REHEAT 22, Maximum Flow per Zone Floor Area during Reheat [m3/s-m2], 2.03200E-003
 Component Sizing Information, AirTerminal:SingleDuct:VAV:Reheat, AIR TERMINAL SINGLE DUCT VAV REHEAT 22, Maximum Flow Fraction during Reheat [], 0.65637
 Component Sizing Information, AirTerminal:SingleDuct:VAV:Reheat, AIR TERMINAL SINGLE DUCT VAV REHEAT 22, Maximum Reheat Water Flow Rate [m3/s], 3.22064E-004
 Component Sizing Information, AirTerminal:SingleDuct:VAV:Reheat, AIR TERMINAL SINGLE DUCT VAV REHEAT 22, Reheat Coil Sizing Air Volume Flow Rate [m3/s], 0.43651
 Component Sizing Information, Coil:Heating:Water, COIL HEATING WATER 23, Maximum Water Flow Rate [m3/s], 3.22064E-004
 Component Sizing Information, Coil:Heating:Water, COIL HEATING WATER 23, Design Coil Load [W], 14824.71114
 Component Sizing Information, Coil:Heating:Water, COIL HEATING WATER 23, U-Factor Times Area Value [W/K], 310.48103
Water Heating Coil Capacity Information,Coil:Heating:Water,COIL HEATING WATER 23,14042.97
 Component Sizing Information, AirTerminal:SingleDuct:VAV:Reheat, AIR TERMINAL SINGLE DUCT VAV REHEAT 3, Maximum Air Flow Rate [m3/s], 0.69745
 Component Sizing Information, AirTerminal:SingleDuct:VAV:Reheat, AIR TERMINAL SINGLE DUCT VAV REHEAT 3, Maximum Flow per Zone Floor Area during Reheat [m3/s-m2], 2.03200E-003
 Component Sizing Information, AirTerminal:SingleDuct:VAV:Reheat, AIR TERMINAL SINGLE DUCT VAV REHEAT 3, Maximum Flow Fraction during Reheat [], 0.41080
 Component Sizing Information, AirTerminal:SingleDuct:VAV:Reheat, AIR TERMINAL SINGLE DUCT VAV REHEAT 3, Maximum Reheat Water Flow Rate [m3/s], 2.88700E-004
 Component Sizing Information, AirTerminal:SingleDuct:VAV:Reheat, AIR TERMINAL SINGLE DUCT VAV REHEAT 3, Reheat Coil Sizing Air Volume Flow Rate [m3/s], 0.39129
 Component Sizing Information, Coil:Heating:Water, COIL HEATING WATER 4, Maximum Water Flow Rate [m3/s], 2.88700E-004
 Component Sizing Information, Coil:Heating:Water, COIL HEATING WATER 4, Design Coil Load [W], 13288.94103
 Component Sizing Information, Coil:Heating:Water, COIL HEATING WATER 4, U-Factor Times Area Value [W/K], 496.08315
Water Heating Coil Capacity Information,Coil:Heating:Water,COIL HEATING WATER 4,18002.70
 Component Sizing Information, AirTerminal:SingleDuct:VAV:Reheat, AIR TERMINAL SINGLE DUCT VAV REHEAT 14, Maximum Air Flow Rate [m3/s], 0.71554
 Component Sizing Information, AirTerminal:SingleDuct:VAV:Reheat, AIR TERMINAL SINGLE DUCT VAV REHEAT 14, Maximum Flow per Zone Floor Area during Reheat [m3/s-m2], 2.03200E-003
 Component Sizing Information, AirTerminal:SingleDuct:VAV:Reheat, AIR TERMINAL SINGLE DUCT VAV REHEAT 14, Maximum Flow Fraction during Reheat [], 0.40041
 Component Sizing Information, AirTerminal:SingleDuct:VAV:Reheat, AIR TERMINAL SINGLE DUCT VAV REHEAT 14, Maximum Reheat Water Flow Rate [m3/s], 3.38051E-004
 Component Sizing Information, AirTerminal:SingleDuct:VAV:Reheat, AIR TERMINAL SINGLE DUCT VAV REHEAT 14, Reheat Coil Sizing Air Volume Flow Rate [m3/s], 0.45818
 Component Sizing Information, Coil:Heating:Water, COIL HEATING WATER 15, Maximum Water Flow Rate [m3/s], 3.38051E-004
 Component Sizing Information, Coil:Heating:Water, COIL HEATING WATER 15, Design Coil Load [W], 15560.60562
 Component Sizing Information, Coil:Heating:Water, COIL HEATING WATER 15, U-Factor Times Area Value [W/K], 508.95494
Water Heating Coil Capacity Information,Coil:Heating:Water,COIL HEATING WATER 15,19578.03
 Component Sizing Information, AirTerminal:SingleDuct:VAV:Reheat, AIR TERMINAL SINGLE DUCT VAV REHEAT 25, Maximum Air Flow Rate [m3/s], 0.64649
 Component Sizing Information, AirTerminal:SingleDuct:VAV:Reheat, AIR TERMINAL SINGLE DUCT VAV REHEAT 25, Maximum Flow per Zone Floor Area during Reheat [m3/s-m2], 2.03200E-003
 Component Sizing Information, AirTerminal:SingleDuct:VAV:Reheat, AIR TERMINAL SINGLE DUCT VAV REHEAT 25, Maximum Flow Fraction during Reheat [], 0.44318
 Component Sizing Information, AirTerminal:SingleDuct:VAV:Reheat, AIR TERMINAL SINGLE DUCT VAV REHEAT 25, Maximum Reheat Water Flow Rate [m3/s], 2.89808E-004
 Component Sizing Information, AirTerminal:SingleDuct:VAV:Reheat, AIR TERMINAL SINGLE DUCT VAV REHEAT 25, Reheat Coil Sizing Air Volume Flow Rate [m3/s], 0.39279
 Component Sizing Information, Coil:Heating:Water, COIL HEATING WATER 26, Maximum Water Flow Rate [m3/s], 2.89808E-004
 Component Sizing Information, Coil:Heating:Water, COIL HEATING WATER 26, Design Coil Load [W], 13339.95729
 Component Sizing Information, Coil:Heating:Water, COIL HEATING WATER 26, U-Factor Times Area Value [W/K], 459.83937
Water Heating Coil Capacity Information,Coil:Heating:Water,COIL HEATING WATER 26,17294.40
 Component Sizing Information, AirTerminal:SingleDuct:VAV:Reheat, AIR TERMINAL SINGLE DUCT VAV REHEAT 4, Maximum Air Flow Rate [m3/s], 0.43285
 Component Sizing Information, AirTerminal:SingleDuct:VAV:Reheat, AIR TERMINAL SINGLE DUCT VAV REHEAT 4, Maximum Flow per Zone Floor Area during Reheat [m3/s-m2], 2.03200E-003
 Component Sizing Information, AirTerminal:SingleDuct:VAV:Reheat, AIR TERMINAL SINGLE DUCT VAV REHEAT 4, Maximum Flow Fraction during Reheat [], 0.66192
 Component Sizing Information, AirTerminal:SingleDuct:VAV:Reheat, AIR TERMINAL SINGLE DUCT VAV REHEAT 4, Maximum Reheat Water Flow Rate [m3/s], 3.19367E-004
 Component Sizing Information, AirTerminal:SingleDuct:VAV:Reheat, AIR TERMINAL SINGLE DUCT VAV REHEAT 4, Reheat Coil Sizing Air Volume Flow Rate [m3/s], 0.43285
 Component Sizing Information, Coil:Heating:Water, COIL HEATING WATER 5, Maximum Water Flow Rate [m3/s], 3.19367E-004
 Component Sizing Information, Coil:Heating:Water, COIL HEATING WATER 5, Design Coil Load [W], 14700.56329
 Component Sizing Information, Coil:Heating:Water, COIL HEATING WATER 5, U-Factor Times Area Value [W/K], 307.88094
Water Heating Coil Capacity Information,Coil:Heating:Water,COIL HEATING WATER 5,13925.37
 Component Sizing Information, AirTerminal:SingleDuct:VAV:Reheat, AIR TERMINAL SINGLE DUCT VAV REHEAT 19, Maximum Air Flow Rate [m3/s], 0.39129
 Component Sizing Information, AirTerminal:SingleDuct:VAV:Reheat, AIR TERMINAL SINGLE DUCT VAV REHEAT 19, Maximum Flow per Zone Floor Area during Reheat [m3/s-m2], 2.03200E-003
 Component Sizing Information, AirTerminal:SingleDuct:VAV:Reheat, AIR TERMINAL SINGLE DUCT VAV REHEAT 19, Maximum Flow Fraction during Reheat [], 0.73223
 Component Sizing Information, AirTerminal:SingleDuct:VAV:Reheat, AIR TERMINAL SINGLE DUCT VAV REHEAT 19, Maximum Reheat Water Flow Rate [m3/s], 2.88700E-004
 Component Sizing Information, AirTerminal:SingleDuct:VAV:Reheat, AIR TERMINAL SINGLE DUCT VAV REHEAT 19, Reheat Coil Sizing Air Volume Flow Rate [m3/s], 0.39129
 Component Sizing Information, Coil:Heating:Water, COIL HEATING WATER 20, Maximum Water Flow Rate [m3/s], 2.88700E-004
 Component Sizing Information, Coil:Heating:Water, COIL HEATING WATER 20, Design Coil Load [W], 13288.94103
 Component Sizing Information, Coil:Heating:Water, COIL HEATING WATER 20, U-Factor Times Area Value [W/K], 278.31666
Water Heating Coil Capacity Information,Coil:Heating:Water,COIL HEATING WATER 20,12588.19
 Component Sizing Information, AirTerminal:SingleDuct:VAV:Reheat, AIR TERMINAL SINGLE DUCT VAV REHEAT 12, Maximum Air Flow Rate [m3/s], 0.53768
 Component Sizing Information, AirTerminal:SingleDuct:VAV:Reheat, AIR TERMINAL SINGLE DUCT VAV REHEAT 12, Maximum Flow per Zone Floor Area during Reheat [m3/s-m2], 2.03200E-003
 Component Sizing Information, AirTerminal:SingleDuct:VAV:Reheat, AIR TERMINAL SINGLE DUCT VAV REHEAT 12, Maximum Flow Fraction during Reheat [], 0.53287
 Component Sizing Information, AirTerminal:SingleDuct:VAV:Reheat, AIR TERMINAL SINGLE DUCT VAV REHEAT 12, Maximum Reheat Water Flow Rate [m3/s], 2.87996E-004
 Component Sizing Information, AirTerminal:SingleDuct:VAV:Reheat, AIR TERMINAL SINGLE DUCT VAV REHEAT 12, Reheat Coil Sizing Air Volume Flow Rate [m3/s], 0.39033
 Component Sizing Information, Coil:Heating:Water, COIL HEATING WATER 13, Maximum Water Flow Rate [m3/s], 2.87996E-004
 Component Sizing Information, Coil:Heating:Water, COIL HEATING WATER 13, Design Coil Load [W], 13256.56047
 Component Sizing Information, Coil:Heating:Water, COIL HEATING WATER 13, U-Factor Times Area Value [W/K], 382.44296
Water Heating Coil Capacity Information,Coil:Heating:Water,COIL HEATING WATER 13,15478.29
 Component Sizing Information, AirTerminal:SingleDuct:VAV:Reheat, AIR TERMINAL SINGLE DUCT VAV REHEAT 16, Maximum Air Flow Rate [m3/s], 0.24496
 Component Sizing Information, AirTerminal:SingleDuct:VAV:Reheat, AIR TERMINAL SINGLE DUCT VAV REHEAT 16, Maximum Flow per Zone Floor Area during Reheat [m3/s-m2], 1.26527E-004
 Component Sizing Information, AirTerminal:SingleDuct:VAV:Reheat, AIR TERMINAL SINGLE DUCT VAV REHEAT 16, Maximum Flow Fraction during Reheat [], 1.00000
 Component Sizing Information, AirTerminal:SingleDuct:VAV:Reheat, AIR TERMINAL SINGLE DUCT VAV REHEAT 16, Maximum Reheat Water Flow Rate [m3/s], 1.80734E-004
 Component Sizing Information, AirTerminal:SingleDuct:VAV:Reheat, AIR TERMINAL SINGLE DUCT VAV REHEAT 16, Reheat Coil Sizing Air Volume Flow Rate [m3/s], 0.24496
 Component Sizing Information, Coil:Heating:Water, COIL HEATING WATER 17, Maximum Water Flow Rate [m3/s], 1.80734E-004
 Component Sizing Information, Coil:Heating:Water, COIL HEATING WATER 17, Design Coil Load [W], 8319.22801
 Component Sizing Information, Coil:Heating:Water, COIL HEATING WATER 17, U-Factor Times Area Value [W/K], 174.23358
Water Heating Coil Capacity Information,Coil:Heating:Water,COIL HEATING WATER 17,7880.54
 Component Sizing Information, AirTerminal:SingleDuct:VAV:Reheat, AIR TERMINAL SINGLE DUCT VAV REHEAT 11, Maximum Air Flow Rate [m3/s], 0.43651
 Component Sizing Information, AirTerminal:SingleDuct:VAV:Reheat, AIR TERMINAL SINGLE DUCT VAV REHEAT 11, Maximum Flow per Zone Floor Area during Reheat [m3/s-m2], 2.03200E-003
 Component Sizing Information, AirTerminal:SingleDuct:VAV:Reheat, AIR TERMINAL SINGLE DUCT VAV REHEAT 11, Maximum Flow Fraction during Reheat [], 0.65637
 Component Sizing Information, AirTerminal:SingleDuct:VAV:Reheat, AIR TERMINAL SINGLE DUCT VAV REHEAT 11, Maximum Reheat Water Flow Rate [m3/s], 3.22064E-004
 Component Sizing Information, AirTerminal:SingleDuct:VAV:Reheat, AIR TERMINAL SINGLE DUCT VAV REHEAT 11, Reheat Coil Sizing Air Volume Flow Rate [m3/s], 0.43651
 Component Sizing Information, Coil:Heating:Water, COIL HEATING WATER 12, Maximum Water Flow Rate [m3/s], 3.22064E-004
 Component Sizing Information, Coil:Heating:Water, COIL HEATING WATER 12, Design Coil Load [W], 14824.71114
 Component Sizing Information, Coil:Heating:Water, COIL HEATING WATER 12, U-Factor Times Area Value [W/K], 310.48103
Water Heating Coil Capacity Information,Coil:Heating:Water,COIL HEATING WATER 12,14042.97
 Component Sizing Information, AirTerminal:SingleDuct:VAV:Reheat, AIR TERMINAL SINGLE DUCT VAV REHEAT 9, Maximum Air Flow Rate [m3/s], 0.43285
 Component Sizing Information, AirTerminal:SingleDuct:VAV:Reheat, AIR TERMINAL SINGLE DUCT VAV REHEAT 9, Maximum Flow per Zone Floor Area during Reheat [m3/s-m2], 2.03200E-003
 Component Sizing Information, AirTerminal:SingleDuct:VAV:Reheat, AIR TERMINAL SINGLE DUCT VAV REHEAT 9, Maximum Flow Fraction during Reheat [], 0.66192
 Component Sizing Information, AirTerminal:SingleDuct:VAV:Reheat, AIR TERMINAL SINGLE DUCT VAV REHEAT 9, Maximum Reheat Water Flow Rate [m3/s], 3.19367E-004
 Component Sizing Information, AirTerminal:SingleDuct:VAV:Reheat, AIR TERMINAL SINGLE DUCT VAV REHEAT 9, Reheat Coil Sizing Air Volume Flow Rate [m3/s], 0.43285
 Component Sizing Information, Coil:Heating:Water, COIL HEATING WATER 10, Maximum Water Flow Rate [m3/s], 3.19367E-004
 Component Sizing Information, Coil:Heating:Water, COIL HEATING WATER 10, Design Coil Load [W], 14700.56329
 Component Sizing Information, Coil:Heating:Water, COIL HEATING WATER 10, U-Factor Times Area Value [W/K], 307.88094
Water Heating Coil Capacity Information,Coil:Heating:Water,COIL HEATING WATER 10,13925.37
 Component Sizing Information, AirTerminal:SingleDuct:VAV:Reheat, AIR TERMINAL SINGLE DUCT VAV REHEAT 23, Maximum Air Flow Rate [m3/s], 0.52531
 Component Sizing Information, AirTerminal:SingleDuct:VAV:Reheat, AIR TERMINAL SINGLE DUCT VAV REHEAT 23, Maximum Flow per Zone Floor Area during Reheat [m3/s-m2], 2.03200E-003
 Component Sizing Information, AirTerminal:SingleDuct:VAV:Reheat, AIR TERMINAL SINGLE DUCT VAV REHEAT 23, Maximum Flow Fraction during Reheat [], 0.54542
 Component Sizing Information, AirTerminal:SingleDuct:VAV:Reheat, AIR TERMINAL SINGLE DUCT VAV REHEAT 23, Maximum Reheat Water Flow Rate [m3/s], 2.83782E-004
 Component Sizing Information, AirTerminal:SingleDuct:VAV:Reheat, AIR TERMINAL SINGLE DUCT VAV REHEAT 23, Reheat Coil Sizing Air Volume Flow Rate [m3/s], 0.38462
 Component Sizing Information, Coil:Heating:Water, COIL HEATING WATER 24, Maximum Water Flow Rate [m3/s], 2.83782E-004
 Component Sizing Information, Coil:Heating:Water, COIL HEATING WATER 24, Design Coil Load [W], 13062.58034
 Component Sizing Information, Coil:Heating:Water, COIL HEATING WATER 24, U-Factor Times Area Value [W/K], 373.64238
Water Heating Coil Capacity Information,Coil:Heating:Water,COIL HEATING WATER 24,15172.12
 Component Sizing Information, AirTerminal:SingleDuct:VAV:Reheat, AIR TERMINAL SINGLE DUCT VAV REHEAT 18, Maximum Air Flow Rate [m3/s], 1.10544
 Component Sizing Information, AirTerminal:SingleDuct:VAV:Reheat, AIR TERMINAL SINGLE DUCT VAV REHEAT 18, Maximum Flow per Zone Floor Area during Reheat [m3/s-m2], 5.70992E-004
 Component Sizing Information, AirTerminal:SingleDuct:VAV:Reheat, AIR TERMINAL SINGLE DUCT VAV REHEAT 18, Maximum Flow Fraction during Reheat [], 1.00000
 Component Sizing Information, AirTerminal:SingleDuct:VAV:Reheat, AIR TERMINAL SINGLE DUCT VAV REHEAT 18, Maximum Reheat Water Flow Rate [m3/s], 8.15617E-004
 Component Sizing Information, AirTerminal:SingleDuct:VAV:Reheat, AIR TERMINAL SINGLE DUCT VAV REHEAT 18, Reheat Coil Sizing Air Volume Flow Rate [m3/s], 1.10544
 Component Sizing Information, Coil:Heating:Water, COIL HEATING WATER 19, Maximum Water Flow Rate [m3/s], 8.15617E-004
 Component Sizing Information, Coil:Heating:Water, COIL HEATING WATER 19, Design Coil Load [W], 37543.11632
 Component Sizing Information, Coil:Heating:Water, COIL HEATING WATER 19, U-Factor Times Area Value [W/K], 786.28348
Water Heating Coil Capacity Information,Coil:Heating:Water,COIL HEATING WATER 19,35563.39
 Component Sizing Information, AirTerminal:SingleDuct:VAV:Reheat, AIR TERMINAL SINGLE DUCT VAV REHEAT 2, Maximum Air Flow Rate [m3/s], 0.96631
 Component Sizing Information, AirTerminal:SingleDuct:VAV:Reheat, AIR TERMINAL SINGLE DUCT VAV REHEAT 2, Maximum Flow per Zone Floor Area during Reheat [m3/s-m2], 4.99129E-004
 Component Sizing Information, AirTerminal:SingleDuct:VAV:Reheat, AIR TERMINAL SINGLE DUCT VAV REHEAT 2, Maximum Flow Fraction during Reheat [], 1.00000
 Component Sizing Information, AirTerminal:SingleDuct:VAV:Reheat, AIR TERMINAL SINGLE DUCT VAV REHEAT 2, Maximum Reheat Water Flow Rate [m3/s], 7.12966E-004
 Component Sizing Information, AirTerminal:SingleDuct:VAV:Reheat, AIR TERMINAL SINGLE DUCT VAV REHEAT 2, Reheat Coil Sizing Air Volume Flow Rate [m3/s], 0.96631
 Component Sizing Information, Coil:Heating:Water, COIL HEATING WATER 3, Maximum Water Flow Rate [m3/s], 7.12966E-004
 Component Sizing Information, Coil:Heating:Water, COIL HEATING WATER 3, Design Coil Load [W], 32818.05626
 Component Sizing Information, Coil:Heating:Water, COIL HEATING WATER 3, U-Factor Times Area Value [W/K], 687.32429
Water Heating Coil Capacity Information,Coil:Heating:Water,COIL HEATING WATER 3,31087.49
 Component Sizing Information, AirTerminal:SingleDuct:VAV:Reheat, AIR TERMINAL SINGLE DUCT VAV REHEAT 7, Maximum Air Flow Rate [m3/s], 0.31955
 Component Sizing Information, AirTerminal:SingleDuct:VAV:Reheat, AIR TERMINAL SINGLE DUCT VAV REHEAT 7, Maximum Flow per Zone Floor Area during Reheat [m3/s-m2], 1.65057E-004
 Component Sizing Information, AirTerminal:SingleDuct:VAV:Reheat, AIR TERMINAL SINGLE DUCT VAV REHEAT 7, Maximum Flow Fraction during Reheat [], 1.00000
 Component Sizing Information, AirTerminal:SingleDuct:VAV:Reheat, AIR TERMINAL SINGLE DUCT VAV REHEAT 7, Maximum Reheat Water Flow Rate [m3/s], 2.35770E-004
 Component Sizing Information, AirTerminal:SingleDuct:VAV:Reheat, AIR TERMINAL SINGLE DUCT VAV REHEAT 7, Reheat Coil Sizing Air Volume Flow Rate [m3/s], 0.31955
 Component Sizing Information, Coil:Heating:Water, COIL HEATING WATER 8, Maximum Water Flow Rate [m3/s], 2.35770E-004
 Component Sizing Information, Coil:Heating:Water, COIL HEATING WATER 8, Design Coil Load [W], 10852.58299
 Component Sizing Information, Coil:Heating:Water, COIL HEATING WATER 8, U-Factor Times Area Value [W/K], 227.29085
Water Heating Coil Capacity Information,Coil:Heating:Water,COIL HEATING WATER 8,10280.30
 Component Sizing Information, AirTerminal:SingleDuct:VAV:Reheat, AIR TERMINAL SINGLE DUCT VAV REHEAT 17, Maximum Air Flow Rate [m3/s], 0.39750
 Component Sizing Information, AirTerminal:SingleDuct:VAV:Reheat, AIR TERMINAL SINGLE DUCT VAV REHEAT 17, Maximum Flow per Zone Floor Area during Reheat [m3/s-m2], 2.03200E-003
 Component Sizing Information, AirTerminal:SingleDuct:VAV:Reheat, AIR TERMINAL SINGLE DUCT VAV REHEAT 17, Maximum Flow Fraction during Reheat [], 0.72078
 Component Sizing Information, AirTerminal:SingleDuct:VAV:Reheat, AIR TERMINAL SINGLE DUCT VAV REHEAT 17, Maximum Reheat Water Flow Rate [m3/s], 2.93285E-004
 Component Sizing Information, AirTerminal:SingleDuct:VAV:Reheat, AIR TERMINAL SINGLE DUCT VAV REHEAT 17, Reheat Coil Sizing Air Volume Flow Rate [m3/s], 0.39750
 Component Sizing Information, Coil:Heating:Water, COIL HEATING WATER 18, Maximum Water Flow Rate [m3/s], 2.93285E-004
 Component Sizing Information, Coil:Heating:Water, COIL HEATING WATER 18, Design Coil Load [W], 13500.01883
 Component Sizing Information, Coil:Heating:Water, COIL HEATING WATER 18, U-Factor Times Area Value [W/K], 282.73737
Water Heating Coil Capacity Information,Coil:Heating:Water,COIL HEATING WATER 18,12788.14
 Component Sizing Information, AirTerminal:SingleDuct:VAV:Reheat, AIR TERMINAL SINGLE DUCT VAV REHEAT 24, Maximum Air Flow Rate [m3/s], 0.61886
 Component Sizing Information, AirTerminal:SingleDuct:VAV:Reheat, AIR TERMINAL SINGLE DUCT VAV REHEAT 24, Maximum Flow per Zone Floor Area during Reheat [m3/s-m2], 2.03200E-003
 Component Sizing Information, AirTerminal:SingleDuct:VAV:Reheat, AIR TERMINAL SINGLE DUCT VAV REHEAT 24, Maximum Flow Fraction during Reheat [], 0.46297
 Component Sizing Information, AirTerminal:SingleDuct:VAV:Reheat, AIR TERMINAL SINGLE DUCT VAV REHEAT 24, Maximum Reheat Water Flow Rate [m3/s], 3.32609E-004
 Component Sizing Information, AirTerminal:SingleDuct:VAV:Reheat, AIR TERMINAL SINGLE DUCT VAV REHEAT 24, Reheat Coil Sizing Air Volume Flow Rate [m3/s], 0.45080
 Component Sizing Information, Coil:Heating:Water, COIL HEATING WATER 25, Maximum Water Flow Rate [m3/s], 3.32609E-004
 Component Sizing Information, Coil:Heating:Water, COIL HEATING WATER 25, Design Coil Load [W], 15310.10202
 Component Sizing Information, Coil:Heating:Water, COIL HEATING WATER 25, U-Factor Times Area Value [W/K], 440.18335
Water Heating Coil Capacity Information,Coil:Heating:Water,COIL HEATING WATER 25,17838.70
 Component Sizing Information, AirTerminal:SingleDuct:VAV:Reheat, AIR TERMINAL SINGLE DUCT VAV REHEAT 20, Maximum Air Flow Rate [m3/s], 0.61151
 Component Sizing Information, AirTerminal:SingleDuct:VAV:Reheat, AIR TERMINAL SINGLE DUCT VAV REHEAT 20, Maximum Flow per Zone Floor Area during Reheat [m3/s-m2], 2.03200E-003
 Component Sizing Information, AirTerminal:SingleDuct:VAV:Reheat, AIR TERMINAL SINGLE DUCT VAV REHEAT 20, Maximum Flow Fraction during Reheat [], 0.46853
 Component Sizing Information, AirTerminal:SingleDuct:VAV:Reheat, AIR TERMINAL SINGLE DUCT VAV REHEAT 20, Maximum Reheat Water Flow Rate [m3/s], 2.83782E-004
 Component Sizing Information, AirTerminal:SingleDuct:VAV:Reheat, AIR TERMINAL SINGLE DUCT VAV REHEAT 20, Reheat Coil Sizing Air Volume Flow Rate [m3/s], 0.38462
 Component Sizing Information, Coil:Heating:Water, COIL HEATING WATER 21, Maximum Water Flow Rate [m3/s], 2.83782E-004
 Component Sizing Information, Coil:Heating:Water, COIL HEATING WATER 21, Design Coil Load [W], 13062.58034
 Component Sizing Information, Coil:Heating:Water, COIL HEATING WATER 21, U-Factor Times Area Value [W/K], 434.95626
Water Heating Coil Capacity Information,Coil:Heating:Water,COIL HEATING WATER 21,16605.01
 Component Sizing Information, AirTerminal:SingleDuct:VAV:Reheat, AIR TERMINAL SINGLE DUCT VAV REHEAT 15, Maximum Air Flow Rate [m3/s], 0.33450
 Component Sizing Information, AirTerminal:SingleDuct:VAV:Reheat, AIR TERMINAL SINGLE DUCT VAV REHEAT 15, Maximum Flow per Zone Floor Area during Reheat [m3/s-m2], 1.72780E-004
 Component Sizing Information, AirTerminal:SingleDuct:VAV:Reheat, AIR TERMINAL SINGLE DUCT VAV REHEAT 15, Maximum Flow Fraction during Reheat [], 1.00000
 Component Sizing Information, AirTerminal:SingleDuct:VAV:Reheat, AIR TERMINAL SINGLE DUCT VAV REHEAT 15, Maximum Reheat Water Flow Rate [m3/s], 2.46803E-004
 Component Sizing Information, AirTerminal:SingleDuct:VAV:Reheat, AIR TERMINAL SINGLE DUCT VAV REHEAT 15, Reheat Coil Sizing Air Volume Flow Rate [m3/s], 0.33450
 Component Sizing Information, Coil:Heating:Water, COIL HEATING WATER 16, Maximum Water Flow Rate [m3/s], 2.46803E-004
 Component Sizing Information, Coil:Heating:Water, COIL HEATING WATER 16, Design Coil Load [W], 11360.41565
 Component Sizing Information, Coil:Heating:Water, COIL HEATING WATER 16, U-Factor Times Area Value [W/K], 237.92663
Water Heating Coil Capacity Information,Coil:Heating:Water,COIL HEATING WATER 16,10761.36
 Component Sizing Information, AirTerminal:SingleDuct:VAV:Reheat, AIR TERMINAL SINGLE DUCT VAV REHEAT 13, Maximum Air Flow Rate [m3/s], 0.55310
 Component Sizing Information, AirTerminal:SingleDuct:VAV:Reheat, AIR TERMINAL SINGLE DUCT VAV REHEAT 13, Maximum Flow per Zone Floor Area during Reheat [m3/s-m2], 2.03200E-003
 Component Sizing Information, AirTerminal:SingleDuct:VAV:Reheat, AIR TERMINAL SINGLE DUCT VAV REHEAT 13, Maximum Flow Fraction during Reheat [], 0.51801
 Component Sizing Information, AirTerminal:SingleDuct:VAV:Reheat, AIR TERMINAL SINGLE DUCT VAV REHEAT 13, Maximum Reheat Water Flow Rate [m3/s], 2.85528E-004
 Component Sizing Information, AirTerminal:SingleDuct:VAV:Reheat, AIR TERMINAL SINGLE DUCT VAV REHEAT 13, Reheat Coil Sizing Air Volume Flow Rate [m3/s], 0.38699
 Component Sizing Information, Coil:Heating:Water, COIL HEATING WATER 14, Maximum Water Flow Rate [m3/s], 2.85528E-004
 Component Sizing Information, Coil:Heating:Water, COIL HEATING WATER 14, Design Coil Load [W], 13142.95334
 Component Sizing Information, Coil:Heating:Water, COIL HEATING WATER 14, U-Factor Times Area Value [W/K], 393.41176
Water Heating Coil Capacity Information,Coil:Heating:Water,COIL HEATING WATER 14,15693.26
 Component Sizing Information, AirTerminal:SingleDuct:VAV:Reheat, AIR TERMINAL SINGLE DUCT VAV REHEAT 10, Maximum Air Flow Rate [m3/s], 0.70778
 Component Sizing Information, AirTerminal:SingleDuct:VAV:Reheat, AIR TERMINAL SINGLE DUCT VAV REHEAT 10, Maximum Flow per Zone Floor Area during Reheat [m3/s-m2], 2.03200E-003
 Component Sizing Information, AirTerminal:SingleDuct:VAV:Reheat, AIR TERMINAL SINGLE DUCT VAV REHEAT 10, Maximum Flow Fraction during Reheat [], 0.40481
 Component Sizing Information, AirTerminal:SingleDuct:VAV:Reheat, AIR TERMINAL SINGLE DUCT VAV REHEAT 10, Maximum Reheat Water Flow Rate [m3/s], 2.93285E-004
 Component Sizing Information, AirTerminal:SingleDuct:VAV:Reheat, AIR TERMINAL SINGLE DUCT VAV REHEAT 10, Reheat Coil Sizing Air Volume Flow Rate [m3/s], 0.39750
 Component Sizing Information, Coil:Heating:Water, COIL HEATING WATER 11, Maximum Water Flow Rate [m3/s], 2.93285E-004
 Component Sizing Information, Coil:Heating:Water, COIL HEATING WATER 11, Design Coil Load [W], 13500.01883
 Component Sizing Information, Coil:Heating:Water, COIL HEATING WATER 11, U-Factor Times Area Value [W/K], 503.43181
Water Heating Coil Capacity Information,Coil:Heating:Water,COIL HEATING WATER 11,18278.24
 Component Sizing Information, AirTerminal:SingleDuct:VAV:Reheat, AIR TERMINAL SINGLE DUCT VAV REHEAT 26, Maximum Air Flow Rate [m3/s], 0.53710
 Component Sizing Information, AirTerminal:SingleDuct:VAV:Reheat, AIR TERMINAL SINGLE DUCT VAV REHEAT 26, Maximum Flow per Zone Floor Area during Reheat [m3/s-m2], 2.03200E-003
 Component Sizing Information, AirTerminal:SingleDuct:VAV:Reheat, AIR TERMINAL SINGLE DUCT VAV REHEAT 26, Maximum Flow Fraction during Reheat [], 0.53344
 Component Sizing Information, AirTerminal:SingleDuct:VAV:Reheat, AIR TERMINAL SINGLE DUCT VAV REHEAT 26, Maximum Reheat Water Flow Rate [m3/s], 3.32609E-004
 Component Sizing Information, AirTerminal:SingleDuct:VAV:Reheat, AIR TERMINAL SINGLE DUCT VAV REHEAT 26, Reheat Coil Sizing Air Volume Flow Rate [m3/s], 0.45080
 Component Sizing Information, Coil:Heating:Water, COIL HEATING WATER 27, Maximum Water Flow Rate [m3/s], 3.32609E-004
 Component Sizing Information, Coil:Heating:Water, COIL HEATING WATER 27, Design Coil Load [W], 15310.10202
 Component Sizing Information, Coil:Heating:Water, COIL HEATING WATER 27, U-Factor Times Area Value [W/K], 382.03204
Water Heating Coil Capacity Information,Coil:Heating:Water,COIL HEATING WATER 27,16311.60
 Component Sizing Information, AirTerminal:SingleDuct:VAV:Reheat, AIR TERMINAL SINGLE DUCT VAV REHEAT 6, Maximum Air Flow Rate [m3/s], 0.39279
 Component Sizing Information, AirTerminal:SingleDuct:VAV:Reheat, AIR TERMINAL SINGLE DUCT VAV REHEAT 6, Maximum Flow per Zone Floor Area during Reheat [m3/s-m2], 2.03200E-003
 Component Sizing Information, AirTerminal:SingleDuct:VAV:Reheat, AIR TERMINAL SINGLE DUCT VAV REHEAT 6, Maximum Flow Fraction during Reheat [], 0.72943
 Component Sizing Information, AirTerminal:SingleDuct:VAV:Reheat, AIR TERMINAL SINGLE DUCT VAV REHEAT 6, Maximum Reheat Water Flow Rate [m3/s], 2.89808E-004
 Component Sizing Information, AirTerminal:SingleDuct:VAV:Reheat, AIR TERMINAL SINGLE DUCT VAV REHEAT 6, Reheat Coil Sizing Air Volume Flow Rate [m3/s], 0.39279
 Component Sizing Information, Coil:Heating:Water, COIL HEATING WATER 7, Maximum Water Flow Rate [m3/s], 2.89808E-004
 Component Sizing Information, Coil:Heating:Water, COIL HEATING WATER 7, Design Coil Load [W], 13339.95729
 Component Sizing Information, Coil:Heating:Water, COIL HEATING WATER 7, U-Factor Times Area Value [W/K], 279.38512
Water Heating Coil Capacity Information,Coil:Heating:Water,COIL HEATING WATER 7,12636.51
 Component Sizing Information, AirTerminal:SingleDuct:VAV:Reheat, AIR TERMINAL SINGLE DUCT VAV REHEAT 5, Maximum Air Flow Rate [m3/s], 0.45818
 Component Sizing Information, AirTerminal:SingleDuct:VAV:Reheat, AIR TERMINAL SINGLE DUCT VAV REHEAT 5, Maximum Flow per Zone Floor Area during Reheat [m3/s-m2], 2.03200E-003
 Component Sizing Information, AirTerminal:SingleDuct:VAV:Reheat, AIR TERMINAL SINGLE DUCT VAV REHEAT 5, Maximum Flow Fraction during Reheat [], 0.62533
 Component Sizing Information, AirTerminal:SingleDuct:VAV:Reheat, AIR TERMINAL SINGLE DUCT VAV REHEAT 5, Maximum Reheat Water Flow Rate [m3/s], 3.38051E-004
 Component Sizing Information, AirTerminal:SingleDuct:VAV:Reheat, AIR TERMINAL SINGLE DUCT VAV REHEAT 5, Reheat Coil Sizing Air Volume Flow Rate [m3/s], 0.45818
 Component Sizing Information, Coil:Heating:Water, COIL HEATING WATER 6, Maximum Water Flow Rate [m3/s], 3.38051E-004
 Component Sizing Information, Coil:Heating:Water, COIL HEATING WATER 6, Design Coil Load [W], 15560.60562
 Component Sizing Information, Coil:Heating:Water, COIL HEATING WATER 6, U-Factor Times Area Value [W/K], 325.89322
Water Heating Coil Capacity Information,Coil:Heating:Water,COIL HEATING WATER 6,14740.06
 Component Sizing Information, Branch, BRANCH {2B10EE6A-7CDA-4DFA-8B6E-7A21238E55E8}, Maximum Flow Rate [m3/s], 11.21447
 Component Sizing Information, AirLoopHVAC, AIR LOOP HVAC 1, Design Supply Air Flow Rate [m3/s], 11.21447
 Component Sizing Information, Controller:OutdoorAir, CONTROLLER OUTDOOR AIR 1, Maximum Outdoor Air Flow Rate [m3/s], 11.21447
 Component Sizing Information, Controller:OutdoorAir, CONTROLLER OUTDOOR AIR 1, Minimum Outdoor Air Flow Rate [m3/s], 0.00000
 Component Sizing Information, Coil:Cooling:DX:TwoSpeed, COIL COOLING DX TWO SPEED 1, Rated High Speed Air Flow Rate [m3/s], 11.21447
 Component Sizing Information, Coil:Cooling:DX:TwoSpeed, COIL COOLING DX TWO SPEED 1, Rated High Speed Total Cooling Capacity (gross) [W], 278482.05196
 Component Sizing Information, Coil:Cooling:DX:TwoSpeed, COIL COOLING DX TWO SPEED 1, Rated High Speed Sensible Heat Ratio, 0.67608
 Component Sizing Information, Coil:Cooling:DX:TwoSpeed, COIL COOLING DX TWO SPEED 1, Rated Low Speed Air Flow Rate [m3/s], 3.73778
 Component Sizing Information, Coil:Cooling:DX:TwoSpeed, COIL COOLING DX TWO SPEED 1, Rated Low Speed Total Cooling Capacity (gross) [W], 92818.06792
! <VAV DX Cooling Coil Standard Rating Information>, DX Coil Type, DX Coil Name, Fan Type, Fan Name, Standard Net Cooling Capacity {W}, Standard Net Cooling Capacity {Btu/h}, IEER {Btu/W-h}, COP 100% Capacity {W/W}, COP 75% Capacity {W/W}, COP 50% Capacity {W/W}, COP 25% Capacity {W/W}, EER 100% Capacity {Btu/W-h}, EER 75% Capacity {Btu/W-h}, EER 50% Capacity {Btu/W-h}, EER 25% Capacity {Btu/W-h}, Supply Air Flow 100% {kg/s}, Supply Air Flow 75% {kg/s},Supply Air Flow 50% {kg/s},Supply Air Flow 25% {kg/s}
 VAV DX Cooling Coil Standard Rating Information, Coil:Cooling:DX:TwoSpeed,COIL COOLING DX TWO SPEED 1,N/A,N/A,270281.51,922238.78,25.64,4.59,6.13,8.63,12.67,15.66,20.93,29.43,43.23,12.9679,10.3700,7.1361,3.6458,
 Component Sizing Information, Coil:Heating:Water, COIL HEATING WATER 1, Maximum Water Flow Rate [m3/s], 2.08693E-003
 Component Sizing Information, Coil:Heating:Water, COIL HEATING WATER 1, Design Coil Load [W], 96062.06063
 Component Sizing Information, Coil:Heating:Water, COIL HEATING WATER 1, U-Factor Times Area Value [W/K], 1312.32663
Water Heating Coil Capacity Information,Coil:Heating:Water,COIL HEATING WATER 1,74794.71
 Component Sizing Information, Fan:VariableVolume, FAN VARIABLE VOLUME 1, Maximum Flow Rate [m3/s], 11.21447
 Component Sizing Information, Controller:WaterCoil, CONTROLLER WATER COIL 1, Maximum Actuated Flow [m3/s], 2.08693E-003
 Component Sizing Information, Controller:WaterCoil, CONTROLLER WATER COIL 1, Controller Convergence Tolerance, 2.28177E-004
 Component Sizing Information, Boiler:HotWater, BOILER HOT WATER 1, Nominal Capacity [W], 478775.62511
 Component Sizing Information, Boiler:HotWater, BOILER HOT WATER 1, Design Water Flow Rate [m3/s], 1.03612E-002
 Component Sizing Information, PlantLoop, PLANT LOOP 1, Maximum Loop Flow Rate [m3/s], 1.03612E-002
 Component Sizing Information, PlantLoop, PLANT LOOP 1, Plant Loop Volume [m3], 11.65636
 Component Sizing Information, Pump:VariableSpeed, PUMP VARIABLE SPEED 1, Rated Flow Rate [m3/s], 1.03612E-002
 Component Sizing Information, Pump:VariableSpeed, PUMP VARIABLE SPEED 1, Rated Power Consumption [W], 2647.15519
! <Environment>,Environment Name,Environment Type, Start Date, End Date, Start DayOfWeek, Duration {#days}, Source:Start DayOfWeek,  Use Daylight Saving, Use Holidays, Apply Weekend Holiday Rule,  Use Rain Values, Use Snow Values
! <Environment:Special Days>, Special Day Name, Special Day Type, Source, Start Date, Duration {#days}
! <Environment:Daylight Saving>, Daylight Saving Indicator, Source, Start Date, End Date
! <Environment:WarmupDays>, NumberofWarmupDays
Environment,PHILADELPHIA INTERNATIONAL AP ANN HUM_N 99.6% CONDNS DP=>MCDB,SizingPeriod:DesignDay,01/21,01/21,WinterDesignDay,1,N/A,N/A,N/A,N/A,N/A,N/A
Environment:Daylight Saving,No,SizingPeriod:DesignDay
! <Environment:Design Day Data>, Max Dry-Bulb Temp {C}, Temp Range {dC}, Temp Range Ind Type, Hum Ind Value at Max Temp, Hum Ind Type,Pressure {Pa}, Wind Direction {deg CW from N}, Wind Speed {m/s}, Clearness, Rain, Snow
! <Environment:Design_Day_Misc>,DayOfYear,ASHRAE A Coeff,ASHRAE B Coeff,ASHRAE C Coeff,Solar Constant-Annual Variation,Eq of Time {minutes}, Solar Declination Angle {deg}, Solar Model
Environment:Design Day Data,-8.70,0.00,DefaultMultipliers,101301,290,5.2,0.00,No ,No 
Environment:Design_Day_Misc, 21,1229.0,0.1415,5.7310E-002,1.0,-11.15,-20.1,ASHRAEClearSky
Environment:WarmupDays,  6
! <Warmup Convergence Information>,Zone Name,Environment Type/Name,Average Warmup Temperature Difference {deltaC},Std Dev Warmup Temperature Difference {deltaC},Max Temperature Pass/Fail Convergence,Min Temperature Pass/Fail Convergence,Average Warmup Load Difference {W},Std Dev Warmup Load Difference {W},Heating Load Pass/Fail Convergence,Cooling Load Pass/Fail Convergence
 Warmup Convergence Information,THERMAL ZONE 9,SizingPeriod: PHILADELPHIA INTERNATIONAL AP ANN HUM_N 99.6% CONDNS DP=>MCDB,4.4736425497E-005,1.7279145686E-005,Pass,Pass,6.5268404772E-006,4.9247534473E-006,Pass,Pass
 Warmup Convergence Information,THERMAL ZONE 20,SizingPeriod: PHILADELPHIA INTERNATIONAL AP ANN HUM_N 99.6% CONDNS DP=>MCDB,5.2925392346E-003,6.4320318370E-005,Pass,Pass,5.2927467928E-003,1.8957345777E-005,Pass,Pass
 Warmup Convergence Information,THERMAL ZONE 11,SizingPeriod: PHILADELPHIA INTERNATIONAL AP ANN HUM_N 99.6% CONDNS DP=>MCDB,3.2012408503E-005,2.3107644209E-005,Pass,Pass,1.6353767728E-005,1.2812605685E-005,Pass,Pass
 Warmup Convergence Information,THERMAL ZONE 3,SizingPeriod: PHILADELPHIA INTERNATIONAL AP ANN HUM_N 99.6% CONDNS DP=>MCDB,6.4030859434E-005,2.1415386789E-005,Pass,Pass,9.7126401268E-006,7.7434993682E-006,Pass,Pass
 Warmup Convergence Information,THERMAL ZONE 24,SizingPeriod: PHILADELPHIA INTERNATIONAL AP ANN HUM_N 99.6% CONDNS DP=>MCDB,1.1503922835E-003,2.5510409243E-003,Pass,Pass,6.3998175542E-004,1.6324269068E-003,Pass,Pass
 Warmup Convergence Information,THERMAL ZONE 4,SizingPeriod: PHILADELPHIA INTERNATIONAL AP ANN HUM_N 99.6% CONDNS DP=>MCDB,5.8098201733E-003,1.9604129625E-003,Pass,Pass,4.6237120387E-003,1.9593244776E-003,Pass,Pass
 Warmup Convergence Information,THERMAL ZONE 2,SizingPeriod: PHILADELPHIA INTERNATIONAL AP ANN HUM_N 99.6% CONDNS DP=>MCDB,3.1674926143E-005,2.2762308347E-005,Pass,Pass,1.6381773137E-005,1.2818763625E-005,Pass,Pass
 Warmup Convergence Information,THERMAL ZONE 6,SizingPeriod: PHILADELPHIA INTERNATIONAL AP ANN HUM_N 99.6% CONDNS DP=>MCDB,8.3595099036E-005,3.5628999749E-005,Pass,Pass,1.8241002772E-005,1.3747329241E-005,Pass,Pass
 Warmup Convergence Information,THERMAL ZONE 19,SizingPeriod: PHILADELPHIA INTERNATIONAL AP ANN HUM_N 99.6% CONDNS DP=>MCDB,3.4171154187E-003,1.5793388144E-003,Pass,Pass,2.9814963807E-003,1.5588157299E-003,Pass,Pass
 Warmup Convergence Information,THERMAL ZONE 12,SizingPeriod: PHILADELPHIA INTERNATIONAL AP ANN HUM_N 99.6% CONDNS DP=>MCDB,2.2787624954E-004,3.4978304042E-005,Pass,Pass,2.2863394240E-005,1.6410171362E-005,Pass,Pass
 Warmup Convergence Information,THERMAL ZONE 18,SizingPeriod: PHILADELPHIA INTERNATIONAL AP ANN HUM_N 99.6% CONDNS DP=>MCDB,3.4190796786E-005,2.4623848686E-005,Pass,Pass,1.6724452406E-005,1.3044814132E-005,Pass,Pass
 Warmup Convergence Information,THERMAL ZONE 5,SizingPeriod: PHILADELPHIA INTERNATIONAL AP ANN HUM_N 99.6% CONDNS DP=>MCDB,3.3066338034E-005,2.3841144364E-005,Pass,Pass,1.6436271898E-005,1.2824923873E-005,Pass,Pass
 Warmup Convergence Information,THERMAL ZONE 8,SizingPeriod: PHILADELPHIA INTERNATIONAL AP ANN HUM_N 99.6% CONDNS DP=>MCDB,2.0846855708E-003,2.2238889887E-003,Pass,Pass,1.4847543913E-003,1.7923996922E-003,Pass,Pass
 Warmup Convergence Information,THERMAL ZONE 25,SizingPeriod: PHILADELPHIA INTERNATIONAL AP ANN HUM_N 99.6% CONDNS DP=>MCDB,4.7370672568E-005,1.3279767296E-005,Pass,Pass,1.6751233292E-005,1.2616670340E-005,Pass,Pass
 Warmup Convergence Information,THERMAL ZONE 1,SizingPeriod: PHILADELPHIA INTERNATIONAL AP ANN HUM_N 99.6% CONDNS DP=>MCDB,1.9092229540E-004,3.3566619162E-005,Pass,Pass,2.1697194712E-005,1.6069564724E-005,Pass,Pass
 Warmup Convergence Information,THERMAL ZONE 13,SizingPeriod: PHILADELPHIA INTERNATIONAL AP ANN HUM_N 99.6% CONDNS DP=>MCDB,2.4071170475E-004,3.7480241832E-005,Pass,Pass,2.3712567816E-005,1.6851193245E-005,Pass,Pass
 Warmup Convergence Information,THERMAL ZONE 15,SizingPeriod: PHILADELPHIA INTERNATIONAL AP ANN HUM_N 99.6% CONDNS DP=>MCDB,8.8310387029E-005,3.6886451201E-005,Pass,Pass,1.8390193219E-005,1.3856943240E-005,Pass,Pass
 Warmup Convergence Information,THERMAL ZONE 10,SizingPeriod: PHILADELPHIA INTERNATIONAL AP ANN HUM_N 99.6% CONDNS DP=>MCDB,3.4661203796E-003,2.0340265566E-003,Pass,Pass,2.6199796446E-003,1.7050935546E-003,Pass,Pass
 Warmup Convergence Information,THERMAL ZONE 7,SizingPeriod: PHILADELPHIA INTERNATIONAL AP ANN HUM_N 99.6% CONDNS DP=>MCDB,2.5783191131E-003,3.2452948028E-003,Pass,Pass,1.5102701223E-003,2.3098710522E-003,Pass,Pass
 Warmup Convergence Information,THERMAL ZONE 14,SizingPeriod: PHILADELPHIA INTERNATIONAL AP ANN HUM_N 99.6% CONDNS DP=>MCDB,1.5820975095E-004,2.6461311787E-005,Pass,Pass,1.9658093298E-005,1.4760153839E-005,Pass,Pass
 Warmup Convergence Information,THERMAL ZONE 16,SizingPeriod: PHILADELPHIA INTERNATIONAL AP ANN HUM_N 99.6% CONDNS DP=>MCDB,3.6903753321E-003,1.9010099369E-003,Pass,Pass,2.9829638240E-003,1.7776911915E-003,Pass,Pass
 Warmup Convergence Information,THERMAL ZONE 21,SizingPeriod: PHILADELPHIA INTERNATIONAL AP ANN HUM_N 99.6% CONDNS DP=>MCDB,3.9125558416E-003,1.8814784746E-003,Pass,Pass,3.8152385740E-003,1.2431346697E-003,Pass,Pass
 Warmup Convergence Information,THERMAL ZONE 23,SizingPeriod: PHILADELPHIA INTERNATIONAL AP ANN HUM_N 99.6% CONDNS DP=>MCDB,5.4633462254E-005,2.0160817856E-005,Pass,Pass,7.7702216474E-006,5.9114173222E-006,Pass,Pass
 Warmup Convergence Information,THERMAL ZONE 17,SizingPeriod: PHILADELPHIA INTERNATIONAL AP ANN HUM_N 99.6% CONDNS DP=>MCDB,6.2130577536E-005,3.2528046380E-005,Pass,Pass,1.7855629986E-005,1.3474620826E-005,Pass,Pass
 Warmup Convergence Information,THERMAL ZONE 22,SizingPeriod: PHILADELPHIA INTERNATIONAL AP ANN HUM_N 99.6% CONDNS DP=>MCDB,7.4612037952E-005,3.7995622002E-005,Pass,Pass,1.8154030772E-005,1.3685098039E-005,Pass,Pass
Environment,PHILADELPHIA INTERNATIONAL AP ANN HTG WIND 99% CONDNS WS=>MCDB,SizingPeriod:DesignDay,01/21,01/21,WinterDesignDay,1,N/A,N/A,N/A,N/A,N/A,N/A
Environment:Daylight Saving,No,SizingPeriod:DesignDay
Environment:Design Day Data,1.10,0.00,DefaultMultipliers,101301,290,11.6,0.00,No ,No 
Environment:Design_Day_Misc, 21,1229.0,0.1415,5.7310E-002,1.0,-11.15,-20.1,ASHRAEClearSky
Environment:WarmupDays,  6
 Warmup Convergence Information,THERMAL ZONE 9,SizingPeriod: PHILADELPHIA INTERNATIONAL AP ANN HTG WIND 99% CONDNS WS=>MCDB,3.5414414768E-003,1.0319257425E-003,Pass,Pass,3.9790104917E-003,1.4890693365E-003,Pass,Pass
 Warmup Convergence Information,THERMAL ZONE 20,SizingPeriod: PHILADELPHIA INTERNATIONAL AP ANN HTG WIND 99% CONDNS WS=>MCDB,2.2099308456E-003,2.1428565065E-003,Pass,Pass,1.5683553894E-003,2.0452260909E-003,Pass,Pass
 Warmup Convergence Information,THERMAL ZONE 11,SizingPeriod: PHILADELPHIA INTERNATIONAL AP ANN HTG WIND 99% CONDNS WS=>MCDB,2.0982877610E-005,1.3755358252E-005,Pass,Pass,1.6470703987E-005,1.1862447865E-005,Pass,Pass
 Warmup Convergence Information,THERMAL ZONE 3,SizingPeriod: PHILADELPHIA INTERNATIONAL AP ANN HTG WIND 99% CONDNS WS=>MCDB,3.7767070717E-003,2.1060209516E-003,Pass,Pass,3.0280828243E-003,2.4287172136E-003,Pass,Pass
 Warmup Convergence Information,THERMAL ZONE 24,SizingPeriod: PHILADELPHIA INTERNATIONAL AP ANN HTG WIND 99% CONDNS WS=>MCDB,9.2897183585E-004,2.0910886388E-003,Pass,Pass,8.2736860490E-004,2.1004776992E-003,Pass,Pass
 Warmup Convergence Information,THERMAL ZONE 4,SizingPeriod: PHILADELPHIA INTERNATIONAL AP ANN HTG WIND 99% CONDNS WS=>MCDB,3.6156058101E-003,1.5565740276E-003,Pass,Pass,2.8844353770E-003,2.0314648368E-003,Pass,Pass
 Warmup Convergence Information,THERMAL ZONE 2,SizingPeriod: PHILADELPHIA INTERNATIONAL AP ANN HTG WIND 99% CONDNS WS=>MCDB,2.0721866094E-005,1.3610025007E-005,Pass,Pass,1.6439919132E-005,1.1836095692E-005,Pass,Pass
 Warmup Convergence Information,THERMAL ZONE 6,SizingPeriod: PHILADELPHIA INTERNATIONAL AP ANN HTG WIND 99% CONDNS WS=>MCDB,3.7747903990E-003,2.0685718855E-005,Pass,Pass,5.2866887929E-003,2.4757652264E-005,Pass,Pass
 Warmup Convergence Information,THERMAL ZONE 19,SizingPeriod: PHILADELPHIA INTERNATIONAL AP ANN HTG WIND 99% CONDNS WS=>MCDB,1.5249236236E-005,1.0483937228E-005,Pass,Pass,1.5021967770E-005,1.0642441542E-005,Pass,Pass
 Warmup Convergence Information,THERMAL ZONE 12,SizingPeriod: PHILADELPHIA INTERNATIONAL AP ANN HTG WIND 99% CONDNS WS=>MCDB,2.9722273723E-006,1.8249828710E-006,Pass,Pass,1.9004269956E-005,1.3403059655E-005,Pass,Pass
 Warmup Convergence Information,THERMAL ZONE 18,SizingPeriod: PHILADELPHIA INTERNATIONAL AP ANN HTG WIND 99% CONDNS WS=>MCDB,2.0987175495E-005,1.3755602614E-005,Pass,Pass,1.6471359526E-005,1.1862392362E-005,Pass,Pass
 Warmup Convergence Information,THERMAL ZONE 5,SizingPeriod: PHILADELPHIA INTERNATIONAL AP ANN HTG WIND 99% CONDNS WS=>MCDB,2.0747108358E-005,1.3584269451E-005,Pass,Pass,1.6442591127E-005,1.1833254712E-005,Pass,Pass
 Warmup Convergence Information,THERMAL ZONE 8,SizingPeriod: PHILADELPHIA INTERNATIONAL AP ANN HTG WIND 99% CONDNS WS=>MCDB,2.2308650450E-003,1.2523239239E-003,Pass,Pass,1.8111852952E-003,1.4731761478E-003,Pass,Pass
 Warmup Convergence Information,THERMAL ZONE 25,SizingPeriod: PHILADELPHIA INTERNATIONAL AP ANN HTG WIND 99% CONDNS WS=>MCDB,4.8893503191E-006,3.4878888639E-006,Pass,Pass,1.7805640282E-005,1.2563505483E-005,Pass,Pass
 Warmup Convergence Information,THERMAL ZONE 1,SizingPeriod: PHILADELPHIA INTERNATIONAL AP ANN HTG WIND 99% CONDNS WS=>MCDB,3.7257295863E-006,2.7001417621E-006,Pass,Pass,1.8382865668E-005,1.3249455482E-005,Pass,Pass
 Warmup Convergence Information,THERMAL ZONE 13,SizingPeriod: PHILADELPHIA INTERNATIONAL AP ANN HTG WIND 99% CONDNS WS=>MCDB,1.7741666755E-006,1.3427448825E-006,Pass,Pass,1.9287844662E-005,1.3917696556E-005,Pass,Pass
 Warmup Convergence Information,THERMAL ZONE 15,SizingPeriod: PHILADELPHIA INTERNATIONAL AP ANN HTG WIND 99% CONDNS WS=>MCDB,1.7341036324E-005,1.1598576375E-005,Pass,Pass,1.6576513444E-005,1.1959594403E-005,Pass,Pass
 Warmup Convergence Information,THERMAL ZONE 10,SizingPeriod: PHILADELPHIA INTERNATIONAL AP ANN HTG WIND 99% CONDNS WS=>MCDB,1.7325681340E-005,1.1833827783E-005,Pass,Pass,1.4888681524E-005,1.0559144837E-005,Pass,Pass
 Warmup Convergence Information,THERMAL ZONE 7,SizingPeriod: PHILADELPHIA INTERNATIONAL AP ANN HTG WIND 99% CONDNS WS=>MCDB,3.2395523200E-003,1.2124401716E-003,Pass,Pass,3.2668698415E-003,1.7189703153E-003,Pass,Pass
 Warmup Convergence Information,THERMAL ZONE 14,SizingPeriod: PHILADELPHIA INTERNATIONAL AP ANN HTG WIND 99% CONDNS WS=>MCDB,2.5089163725E-006,1.7199560269E-006,Pass,Pass,1.8621063177E-005,1.3102704827E-005,Pass,Pass
 Warmup Convergence Information,THERMAL ZONE 16,SizingPeriod: PHILADELPHIA INTERNATIONAL AP ANN HTG WIND 99% CONDNS WS=>MCDB,4.7217447430E-003,5.5500342658E-004,Pass,Pass,6.5716272599E-003,4.6855199014E-004,Pass,Pass
 Warmup Convergence Information,THERMAL ZONE 21,SizingPeriod: PHILADELPHIA INTERNATIONAL AP ANN HTG WIND 99% CONDNS WS=>MCDB,4.1631802592E-003,1.8517369234E-003,Pass,Pass,3.4216878119E-003,2.3356242125E-003,Pass,Pass
 Warmup Convergence Information,THERMAL ZONE 23,SizingPeriod: PHILADELPHIA INTERNATIONAL AP ANN HTG WIND 99% CONDNS WS=>MCDB,3.6909916557E-003,2.1731105196E-005,Pass,Pass,4.5967803904E-003,2.1665412151E-005,Pass,Pass
 Warmup Convergence Information,THERMAL ZONE 17,SizingPeriod: PHILADELPHIA INTERNATIONAL AP ANN HTG WIND 99% CONDNS WS=>MCDB,3.7360973006E-003,2.1127699327E-005,Pass,Pass,5.1215012288E-003,2.4244814990E-005,Pass,Pass
 Warmup Convergence Information,THERMAL ZONE 22,SizingPeriod: PHILADELPHIA INTERNATIONAL AP ANN HTG WIND 99% CONDNS WS=>MCDB,5.0308895288E-003,1.8238222094E-003,Pass,Pass,3.7431709672E-003,2.0699715888E-003,Pass,Pass
Environment,PHILADELPHIA INTERNATIONAL AP ANN CLG 2% CONDNS DB=>MWB,SizingPeriod:DesignDay,07/21,07/21,SummerDesignDay,1,N/A,N/A,N/A,N/A,N/A,N/A
Environment:Daylight Saving,No,SizingPeriod:DesignDay
Environment:Design Day Data,31.10,9.40,DefaultMultipliers,101301,240,5.0,0.00,No ,No 
Environment:Design_Day_Misc,202,1084.4,0.2082,0.1365,1.0,-6.23,20.6,ASHRAETau
Environment:WarmupDays,  6
 Warmup Convergence Information,THERMAL ZONE 9,SizingPeriod: PHILADELPHIA INTERNATIONAL AP ANN CLG 2% CONDNS DB=>MWB,8.3488516047E-002,0.1114738034,Pass,Pass,5.0511519895E-002,4.0336666750E-002,Pass,Pass
 Warmup Convergence Information,THERMAL ZONE 20,SizingPeriod: PHILADELPHIA INTERNATIONAL AP ANN CLG 2% CONDNS DB=>MWB,8.3403361673E-002,0.1264639793,Pass,Pass,4.0580496889E-002,4.1577328131E-002,Pass,Pass
 Warmup Convergence Information,THERMAL ZONE 11,SizingPeriod: PHILADELPHIA INTERNATIONAL AP ANN CLG 2% CONDNS DB=>MWB,8.3958298280E-002,0.1904959112,Pass,Pass,0.2480081913,0.5518595864,Pass,Pass
 Warmup Convergence Information,THERMAL ZONE 3,SizingPeriod: PHILADELPHIA INTERNATIONAL AP ANN CLG 2% CONDNS DB=>MWB,8.3552879733E-002,0.1251402247,Pass,Pass,3.8703917018E-002,3.6449437234E-002,Pass,Pass
 Warmup Convergence Information,THERMAL ZONE 24,SizingPeriod: PHILADELPHIA INTERNATIONAL AP ANN CLG 2% CONDNS DB=>MWB,8.3474845807E-002,0.1243379270,Pass,Pass,3.7916352072E-002,3.5371852868E-002,Pass,Pass
 Warmup Convergence Information,THERMAL ZONE 4,SizingPeriod: PHILADELPHIA INTERNATIONAL AP ANN CLG 2% CONDNS DB=>MWB,8.3599252858E-002,0.1316445268,Pass,Pass,4.7464091394E-002,4.0297188544E-002,Pass,Pass
 Warmup Convergence Information,THERMAL ZONE 2,SizingPeriod: PHILADELPHIA INTERNATIONAL AP ANN CLG 2% CONDNS DB=>MWB,8.3846439051E-002,0.1520390947,Pass,Pass,0.2430153846,0.8168498649,Pass,Pass
 Warmup Convergence Information,THERMAL ZONE 6,SizingPeriod: PHILADELPHIA INTERNATIONAL AP ANN CLG 2% CONDNS DB=>MWB,5.5373233238E-002,4.8057951592E-002,Pass,Pass,2.7527763659E-002,4.0602870814E-002,Pass,Pass
 Warmup Convergence Information,THERMAL ZONE 19,SizingPeriod: PHILADELPHIA INTERNATIONAL AP ANN CLG 2% CONDNS DB=>MWB,8.3400141947E-002,0.1072441278,Pass,Pass,3.5507605967E-002,2.8172035017E-002,Pass,Pass
 Warmup Convergence Information,THERMAL ZONE 12,SizingPeriod: PHILADELPHIA INTERNATIONAL AP ANN CLG 2% CONDNS DB=>MWB,1.4257368284E-002,6.5874915252E-003,Pass,Pass,1.1587526138E-003,4.7369471859E-004,Pass,Pass
 Warmup Convergence Information,THERMAL ZONE 18,SizingPeriod: PHILADELPHIA INTERNATIONAL AP ANN CLG 2% CONDNS DB=>MWB,7.9841284330E-004,6.8674177890E-004,Pass,Pass,0.4367128729,1.7708957112,Pass,Pass
[...]
 Warmup Convergence Information,THERMAL ZONE 3,SizingPeriod: PHILADELPHIA INTERNATIONAL AP ANN CLG 2% CONDNS DP=>MDB,8.3713796123E-002,0.1339704839,Pass,Pass,6.0705835818E-002,4.2686413758E-002,Pass,Pass
 Warmup Convergence Information,THERMAL ZONE 24,SizingPeriod: PHILADELPHIA INTERNATIONAL AP ANN CLG 2% CONDNS DP=>MDB,8.3772650117E-002,0.1339772229,Pass,Pass,6.6677581662E-002,4.8342722491E-002,Pass,Pass
 Warmup Convergence Information,THERMAL ZONE 4,SizingPeriod: PHILADELPHIA INTERNATIONAL AP ANN CLG 2% CONDNS DP=>MDB,8.3912148819E-002,0.1359979581,Pass,Pass,0.1026764073,0.1224362723,Pass,Pass
 Warmup Convergence Information,THERMAL ZONE 2,SizingPeriod: PHILADELPHIA INTERNATIONAL AP ANN CLG 2% CONDNS DP=>MDB,8.3961801640E-002,0.1530535179,Pass,Pass,0.1703310260,0.4470522615,Pass,Pass
 Warmup Convergence Information,THERMAL ZONE 6,SizingPeriod: PHILADELPHIA INTERNATIONAL AP ANN CLG 2% CONDNS DP=>MDB,3.2548791011E-002,4.8474572266E-002,Pass,Pass,0.1665617884,0.4623151935,Pass,Pass
 Warmup Convergence Information,THERMAL ZONE 19,SizingPeriod: PHILADELPHIA INTERNATIONAL AP ANN CLG 2% CONDNS DP=>MDB,8.3627245744E-002,0.1069492121,Pass,Pass,8.5469057200E-002,9.8913223412E-002,Pass,Pass
 Warmup Convergence Information,THERMAL ZONE 12,SizingPeriod: PHILADELPHIA INTERNATIONAL AP ANN CLG 2% CONDNS DP=>MDB,1.4159919394E-002,5.9612777745E-003,Pass,Pass,1.2004282598E-003,4.6245796317E-004,Pass,Pass
 Warmup Convergence Information,THERMAL ZONE 18,SizingPeriod: PHILADELPHIA INTERNATIONAL AP ANN CLG 2% CONDNS DP=>MDB,8.1953405062E-004,8.2459960299E-004,Pass,Pass,0.2689811725,1.1431599742,Pass,Pass
 Warmup Convergence Information,THERMAL ZONE 5,SizingPeriod: PHILADELPHIA INTERNATIONAL AP ANN CLG 2% CONDNS DP=>MDB,7.3935273115E-002,0.1206630875,Pass,Pass,0.2352504684,0.7903664639,Pass,Pass
 Warmup Convergence Information,THERMAL ZONE 8,SizingPeriod: PHILADELPHIA INTERNATIONAL AP ANN CLG 2% CONDNS DP=>MDB,8.3700948858E-002,0.1072608438,Pass,Pass,0.1101131069,0.1931751314,Pass,Pass
 Warmup Convergence Information,THERMAL ZONE 25,SizingPeriod: PHILADELPHIA INTERNATIONAL AP ANN CLG 2% CONDNS DP=>MDB,4.6698337119E-003,5.6023304187E-003,Pass,Pass,4.3985422961E-003,5.2096590435E-003,Pass,Pass
 Warmup Convergence Information,THERMAL ZONE 1,SizingPeriod: PHILADELPHIA INTERNATIONAL AP ANN CLG 2% CONDNS DP=>MDB,1.2289950762E-002,1.0102843080E-002,Pass,Pass,5.4213178035E-003,1.0052088061E-002,Pass,Pass
 Warmup Convergence Information,THERMAL ZONE 13,SizingPeriod: PHILADELPHIA INTERNATIONAL AP ANN CLG 2% CONDNS DP=>MDB,1.1632787626E-002,4.6015907106E-003,Pass,Pass,9.7886594986E-004,3.5541988205E-004,Pass,Pass
 Warmup Convergence Information,THERMAL ZONE 15,SizingPeriod: PHILADELPHIA INTERNATIONAL AP ANN CLG 2% CONDNS DP=>MDB,3.2895682590E-002,4.8431364541E-002,Pass,Pass,0.1484815518,0.3723366738,Pass,Pass
 Warmup Convergence Information,THERMAL ZONE 10,SizingPeriod: PHILADELPHIA INTERNATIONAL AP ANN CLG 2% CONDNS DP=>MDB,8.3882081451E-002,0.1179653343,Pass,Pass,0.3707560941,2.2301944551,Pass,Pass
 Warmup Convergence Information,THERMAL ZONE 7,SizingPeriod: PHILADELPHIA INTERNATIONAL AP ANN CLG 2% CONDNS DP=>MDB,8.3747059523E-002,0.1225111874,Pass,Pass,0.1281398510,0.3102901249,Pass,Pass
 Warmup Convergence Information,THERMAL ZONE 14,SizingPeriod: PHILADELPHIA INTERNATIONAL AP ANN CLG 2% CONDNS DP=>MDB,3.7984177076E-003,7.1329436635E-003,Pass,Pass,0.2855003737,1.1550496069,Pass,Pass
 Warmup Convergence Information,THERMAL ZONE 16,SizingPeriod: PHILADELPHIA INTERNATIONAL AP ANN CLG 2% CONDNS DP=>MDB,8.3721864869E-002,0.1250634804,Pass,Pass,0.1957891322,0.6039524939,Pass,Pass
 Warmup Convergence Information,THERMAL ZONE 21,SizingPeriod: PHILADELPHIA INTERNATIONAL AP ANN CLG 2% CONDNS DP=>MDB,8.3758991485E-002,0.1336689773,Pass,Pass,5.8644264845E-002,3.9909278659E-002,Pass,Pass
 Warmup Convergence Information,THERMAL ZONE 23,SizingPeriod: PHILADELPHIA INTERNATIONAL AP ANN CLG 2% CONDNS DP=>MDB,8.3704343470E-002,0.1040055918,Pass,Pass,0.2703819893,1.2473440911,Pass,Pass
 Warmup Convergence Information,THERMAL ZONE 17,SizingPeriod: PHILADELPHIA INTERNATIONAL AP ANN CLG 2% CONDNS DP=>MDB,2.4586660407E-002,4.5212057285E-002,Pass,Pass,0.1810150267,0.4855957171,Pass,Pass
 Warmup Convergence Information,THERMAL ZONE 22,SizingPeriod: PHILADELPHIA INTERNATIONAL AP ANN CLG 2% CONDNS DP=>MDB,2.6499695600E-002,4.4327294607E-002,Pass,Pass,0.4171518173,2.6648086728,Pass,Pass
Environment,PHILADELPHIA INTERNATIONAL AP ANN CLG 2% CONDNS WB=>MDB,SizingPeriod:DesignDay,07/21,07/21,SummerDesignDay,1,N/A,N/A,N/A,N/A,N/A,N/A
Environment:Daylight Saving,No,SizingPeriod:DesignDay
Environment:Design Day Data,28.80,9.40,DefaultMultipliers,101301,240,5.0,0.00,No ,No 
Environment:Design_Day_Misc,202,1084.4,0.2082,0.1365,1.0,-6.23,20.6,ASHRAETau
Environment:WarmupDays,  7
 Warmup Convergence Information,THERMAL ZONE 9,SizingPeriod: PHILADELPHIA INTERNATIONAL AP ANN CLG 2% CONDNS WB=>MDB,8.3642779917E-002,0.1108306672,Pass,Pass,9.5562175370E-002,0.1256941834,Pass,Pass
 Warmup Convergence Information,THERMAL ZONE 20,SizingPeriod: PHILADELPHIA INTERNATIONAL AP ANN CLG 2% CONDNS WB=>MDB,8.3639092440E-002,0.1247711427,Pass,Pass,5.3183453216E-002,5.5986489803E-002,Pass,Pass
 Warmup Convergence Information,THERMAL ZONE 11,SizingPeriod: PHILADELPHIA INTERNATIONAL AP ANN CLG 2% CONDNS WB=>MDB,8.3990974059E-002,0.1929216956,Pass,Pass,2.3739083898,21.0891487057,Pass,Pass
 Warmup Convergence Information,THERMAL ZONE 3,SizingPeriod: PHILADELPHIA INTERNATIONAL AP ANN CLG 2% CONDNS WB=>MDB,8.3683560382E-002,0.1300555913,Pass,Pass,4.6942976322E-002,3.5083807432E-002,Pass,Pass
 Warmup Convergence Information,THERMAL ZONE 24,SizingPeriod: PHILADELPHIA INTERNATIONAL AP ANN CLG 2% CONDNS WB=>MDB,8.3634772849E-002,0.1303922500,Pass,Pass,4.7626221643E-002,3.4593790164E-002,Pass,Pass
 Warmup Convergence Information,THERMAL ZONE 4,SizingPeriod: PHILADELPHIA INTERNATIONAL AP ANN CLG 2% CONDNS WB=>MDB,8.3657407655E-002,0.1328650620,Pass,Pass,6.0494842461E-002,4.3899106028E-002,Pass,Pass
 Warmup Convergence Information,THERMAL ZONE 2,SizingPeriod: PHILADELPHIA INTERNATIONAL AP ANN CLG 2% CONDNS WB=>MDB,8.3898702222E-002,0.1511007869,Pass,Pass,6.2711451792,59.4544364784,Pass,Pass
 Warmup Convergence Information,THERMAL ZONE 6,SizingPeriod: PHILADELPHIA INTERNATIONAL AP ANN CLG 2% CONDNS WB=>MDB,4.3068246900E-002,5.0328828540E-002,Pass,Pass,7.7742633249E-002,0.1446123135,Pass,Pass
 Warmup Convergence Information,THERMAL ZONE 19,SizingPeriod: PHILADELPHIA INTERNATIONAL AP ANN CLG 2% CONDNS WB=>MDB,8.3563541093E-002,0.1071398791,Pass,Pass,4.7385049236E-002,3.7084805933E-002,Pass,Pass
 Warmup Convergence Information,THERMAL ZONE 12,SizingPeriod: PHILADELPHIA INTERNATIONAL AP ANN CLG 2% CONDNS WB=>MDB,1.4273348211E-002,5.9516336332E-003,Pass,Pass,1.1856767626E-003,4.5084925121E-004,Pass,Pass
 Warmup Convergence Information,THERMAL ZONE 18,SizingPeriod: PHILADELPHIA INTERNATIONAL AP ANN CLG 2% CONDNS WB=>MDB,8.4546119675E-004,8.1840277774E-004,Pass,Pass,0.3269225380,1.4568840145,Pass,Pass
 Warmup Convergence Information,THERMAL ZONE 5,SizingPeriod: PHILADELPHIA INTERNATIONAL AP ANN CLG 2% CONDNS WB=>MDB,8.0944311245E-002,0.1253990521,Pass,Pass,0.2611009547,1.1037648839,Pass,Pass
 Warmup Convergence Information,THERMAL ZONE 8,SizingPeriod: PHILADELPHIA INTERNATIONAL AP ANN CLG 2% CONDNS WB=>MDB,8.3569506510E-002,0.1076376837,Pass,Pass,5.0650287694E-002,4.0185891013E-002,Pass,Pass
 Warmup Convergence Information,THERMAL ZONE 25,SizingPeriod: PHILADELPHIA INTERNATIONAL AP ANN CLG 2% CONDNS WB=>MDB,3.8030871216E-003,4.8469061756E-003,Pass,Pass,5.1709545269E-003,5.0925652650E-003,Pass,Pass
 Warmup Convergence Information,THERMAL ZONE 1,SizingPeriod: PHILADELPHIA INTERNATIONAL AP ANN CLG 2% CONDNS WB=>MDB,1.4969560223E-002,8.6085054165E-003,Pass,Pass,1.2650488340E-003,7.0529554078E-004,Pass,Pass
 Warmup Convergence Information,THERMAL ZONE 13,SizingPeriod: PHILADELPHIA INTERNATIONAL AP ANN CLG 2% CONDNS WB=>MDB,1.1553593681E-002,4.5653720989E-003,Pass,Pass,9.4639662861E-004,3.4478227683E-004,Pass,Pass
 Warmup Convergence Information,THERMAL ZONE 15,SizingPeriod: PHILADELPHIA INTERNATIONAL AP ANN CLG 2% CONDNS WB=>MDB,4.4260231038E-002,5.0016329898E-002,Pass,Pass,5.3677322663E-002,7.5890103211E-002,Pass,Pass
 Warmup Convergence Information,THERMAL ZONE 10,SizingPeriod: PHILADELPHIA INTERNATIONAL AP ANN CLG 2% CONDNS WB=>MDB,8.3667656001E-002,0.1209032685,Pass,Pass,5.3087615404E-002,5.7633290926E-002,Pass,Pass
 Warmup Convergence Information,THERMAL ZONE 7,SizingPeriod: PHILADELPHIA INTERNATIONAL AP ANN CLG 2% CONDNS WB=>MDB,8.3748284008E-002,0.1249631607,Pass,Pass,5.6500832118E-002,6.0530462577E-002,Pass,Pass
 Warmup Convergence Information,THERMAL ZONE 14,SizingPeriod: PHILADELPHIA INTERNATIONAL AP ANN CLG 2% CONDNS WB=>MDB,7.0325548069E-003,9.2535782725E-003,Pass,Pass,8.3889150413E-002,0.1243297045,Pass,Pass
 Warmup Convergence Information,THERMAL ZONE 16,SizingPeriod: PHILADELPHIA INTERNATIONAL AP ANN CLG 2% CONDNS WB=>MDB,8.3684623176E-002,0.1270514769,Pass,Pass,0.2065716947,0.9752046226,Pass,Pass
 Warmup Convergence Information,THERMAL ZONE 21,SizingPeriod: PHILADELPHIA INTERNATIONAL AP ANN CLG 2% CONDNS WB=>MDB,8.3706014640E-002,0.1298556711,Pass,Pass,4.5354488140E-002,3.4335646301E-002,Pass,Pass
 Warmup Convergence Information,THERMAL ZONE 23,SizingPeriod: PHILADELPHIA INTERNATIONAL AP ANN CLG 2% CONDNS WB=>MDB,8.3542636257E-002,0.1053347161,Pass,Pass,4.8204593949E-002,4.0541877256E-002,Pass,Pass
 Warmup Convergence Information,THERMAL ZONE 17,SizingPeriod: PHILADELPHIA INTERNATIONAL AP ANN CLG 2% CONDNS WB=>MDB,3.3738515685E-002,4.9603053831E-002,Pass,Pass,0.1654859407,0.5068715341,Pass,Pass
 Warmup Convergence Information,THERMAL ZONE 22,SizingPeriod: PHILADELPHIA INTERNATIONAL AP ANN CLG 2% CONDNS WB=>MDB,3.8879917858E-002,4.7273420742E-002,Pass,Pass,5.5963357533E-002,7.5240209201E-002,Pass,Pass
Environment,PHILADELPHIA INTERNATIONAL AP ANN CLG .4% CONDNS WB=>MDB,SizingPeriod:DesignDay,07/21,07/21,SummerDesignDay,1,N/A,N/A,N/A,N/A,N/A,N/A
Environment:Daylight Saving,No,SizingPeriod:DesignDay
Environment:Design Day Data,31.40,9.40,DefaultMultipliers,101301,240,5.0,0.00,No ,No 
Environment:Design_Day_Misc,202,1084.4,0.2082,0.1365,1.0,-6.23,20.6,ASHRAETau
Environment:WarmupDays,  6
 Warmup Convergence Information,THERMAL ZONE 9,SizingPeriod: PHILADELPHIA INTERNATIONAL AP ANN CLG .4% CONDNS WB=>MDB,8.3430277994E-002,0.1110054532,Pass,Pass,4.7973080799E-002,3.7862190313E-002,Pass,Pass
 Warmup Convergence Information,THERMAL ZONE 20,SizingPeriod: PHILADELPHIA INTERNATIONAL AP ANN CLG .4% CONDNS WB=>MDB,8.3394620569E-002,0.1269327970,Pass,Pass,3.8931560939E-002,4.0286113354E-002,Pass,Pass
 Warmup Convergence Information,THERMAL ZONE 11,SizingPeriod: PHILADELPHIA INTERNATIONAL AP ANN CLG .4% CONDNS WB=>MDB,8.3927957335E-002,0.1894634390,Pass,Pass,0.2797864684,0.7928090990,Pass,Pass
 Warmup Convergence Information,THERMAL ZONE 3,SizingPeriod: PHILADELPHIA INTERNATIONAL AP ANN CLG .4% CONDNS WB=>MDB,8.3453664779E-002,0.1221305651,Pass,Pass,3.7640686359E-002,3.6454769100E-002,Pass,Pass
 Warmup Convergence Information,THERMAL ZONE 24,SizingPeriod: PHILADELPHIA INTERNATIONAL AP ANN CLG .4% CONDNS WB=>MDB,8.3478553431E-002,0.1209512807,Pass,Pass,3.6552803085E-002,3.5812998990E-002,Pass,Pass
 Warmup Convergence Information,THERMAL ZONE 4,SizingPeriod: PHILADELPHIA INTERNATIONAL AP ANN CLG .4% CONDNS WB=>MDB,8.3530682998E-002,0.1298265672,Pass,Pass,4.5890625609E-002,3.9741819560E-002,Pass,Pass
 Warmup Convergence Information,THERMAL ZONE 2,SizingPeriod: PHILADELPHIA INTERNATIONAL AP ANN CLG .4% CONDNS WB=>MDB,8.3861268167E-002,0.1511255930,Pass,Pass,0.2237363706,0.6458359147,Pass,Pass
 Warmup Convergence Information,THERMAL ZONE 6,SizingPeriod: PHILADELPHIA INTERNATIONAL AP ANN CLG .4% CONDNS WB=>MDB,5.7851284541E-002,4.7461181209E-002,Pass,Pass,2.4320963874E-002,3.6893020085E-002,Pass,Pass
 Warmup Convergence Information,THERMAL ZONE 19,SizingPeriod: PHILADELPHIA INTERNATIONAL AP ANN CLG .4% CONDNS WB=>MDB,8.3330698594E-002,0.1068905993,Pass,Pass,3.4116485549E-002,2.6681911463E-002,Pass,Pass
 Warmup Convergence Information,THERMAL ZONE 12,SizingPeriod: PHILADELPHIA INTERNATIONAL AP ANN CLG .4% CONDNS WB=>MDB,1.4252722117E-002,6.5752967432E-003,Pass,Pass,1.1478954685E-003,4.7295396566E-004,Pass,Pass
 Warmup Convergence Information,THERMAL ZONE 18,SizingPeriod: PHILADELPHIA INTERNATIONAL AP ANN CLG .4% CONDNS WB=>MDB,7.6191015431E-004,6.9860587855E-004,Pass,Pass,0.3943628656,1.1314485871,Pass,Pass
 Warmup Convergence Information,THERMAL ZONE 5,SizingPeriod: PHILADELPHIA INTERNATIONAL AP ANN CLG .4% CONDNS WB=>MDB,8.3846917100E-002,0.1315649811,Pass,Pass,0.1883511288,0.4617764795,Pass,Pass
 Warmup Convergence Information,THERMAL ZONE 8,SizingPeriod: PHILADELPHIA INTERNATIONAL AP ANN CLG .4% CONDNS WB=>MDB,8.3405636462E-002,0.1076952762,Pass,Pass,3.6079703277E-002,2.8216416733E-002,Pass,Pass
 Warmup Convergence Information,THERMAL ZONE 25,SizingPeriod: PHILADELPHIA INTERNATIONAL AP ANN CLG .4% CONDNS WB=>MDB,2.4775684354E-003,3.5666060718E-003,Pass,Pass,5.6841109980E-003,5.5629275357E-003,Pass,Pass
 Warmup Convergence Information,THERMAL ZONE 1,SizingPeriod: PHILADELPHIA INTERNATIONAL AP ANN CLG .4% CONDNS WB=>MDB,1.5063399995E-002,9.4043276072E-003,Pass,Pass,1.2119121952E-003,7.1572714721E-004,Pass,Pass
 Warmup Convergence Information,THERMAL ZONE 13,SizingPeriod: PHILADELPHIA INTERNATIONAL AP ANN CLG .4% CONDNS WB=>MDB,1.1441567808E-002,5.0339423320E-003,Pass,Pass,8.9760548889E-004,3.6043449114E-004,Pass,Pass
 Warmup Convergence Information,THERMAL ZONE 15,SizingPeriod: PHILADELPHIA INTERNATIONAL AP ANN CLG .4% CONDNS WB=>MDB,6.0265745955E-002,4.6431598404E-002,Pass,Pass,2.0667240523E-002,3.2343245450E-002,Pass,Pass
 Warmup Convergence Information,THERMAL ZONE 10,SizingPeriod: PHILADELPHIA INTERNATIONAL AP ANN CLG .4% CONDNS WB=>MDB,8.3354259805E-002,0.1246840125,Pass,Pass,3.7326996360E-002,3.9711616010E-002,Pass,Pass
 Warmup Convergence Information,THERMAL ZONE 7,SizingPeriod: PHILADELPHIA INTERNATIONAL AP ANN CLG .4% CONDNS WB=>MDB,8.3386359801E-002,0.1270307565,Pass,Pass,4.1250384370E-002,4.2298502985E-002,Pass,Pass
 Warmup Convergence Information,THERMAL ZONE 14,SizingPeriod: PHILADELPHIA INTERNATIONAL AP ANN CLG .4% CONDNS WB=>MDB,1.1254907618E-002,9.7349477637E-003,Pass,Pass,2.0811419225E-002,3.2215239103E-002,Pass,Pass
 Warmup Convergence Information,THERMAL ZONE 16,SizingPeriod: PHILADELPHIA INTERNATIONAL AP ANN CLG .4% CONDNS WB=>MDB,8.3624618595E-002,0.1295102599,Pass,Pass,5.3756955454E-002,5.4551205045E-002,Pass,Pass
 Warmup Convergence Information,THERMAL ZONE 21,SizingPeriod: PHILADELPHIA INTERNATIONAL AP ANN CLG .4% CONDNS WB=>MDB,8.3497121378E-002,0.1196372486,Pass,Pass,3.6172041355E-002,3.6231336405E-002,Pass,Pass
 Warmup Convergence Information,THERMAL ZONE 23,SizingPeriod: PHILADELPHIA INTERNATIONAL AP ANN CLG .4% CONDNS WB=>MDB,8.3346004662E-002,0.1049397328,Pass,Pass,3.2892514486E-002,2.6760278947E-002,Pass,Pass
 Warmup Convergence Information,THERMAL ZONE 17,SizingPeriod: PHILADELPHIA INTERNATIONAL AP ANN CLG .4% CONDNS WB=>MDB,4.6581564801E-002,5.1313724034E-002,Pass,Pass,4.8096166156E-002,6.4881832497E-002,Pass,Pass
 Warmup Convergence Information,THERMAL ZONE 22,SizingPeriod: PHILADELPHIA INTERNATIONAL AP ANN CLG .4% CONDNS WB=>MDB,5.6540057654E-002,4.4428714217E-002,Pass,Pass,2.1482258638E-002,3.1363859717E-002,Pass,Pass
Environment,RUN PERIOD 1,WeatherFileRunPeriod,01/01,12/31,Thursday,365,Use RunPeriod Specified Day,Yes,Yes,No ,Yes,Yes
Environment:Daylight Saving,Yes,InputFile,03/08,11/01
Environment:WarmupDays,  6
 Warmup Convergence Information,THERMAL ZONE 9,RunPeriod: RUN PERIOD 1,8.4358184931E-002,0.1560718474,Pass,Pass,0.1766613695,0.4567088005,Pass,Pass
 Warmup Convergence Information,THERMAL ZONE 20,RunPeriod: RUN PERIOD 1,1.7558656022E-003,1.4222646198E-003,Pass,Pass,4.5987831926E-002,7.0833363121E-002,Pass,Pass
 Warmup Convergence Information,THERMAL ZONE 11,RunPeriod: RUN PERIOD 1,2.1411072378E-003,1.8870331954E-003,Pass,Pass,0.1506328146,0.4830940848,Pass,Pass
 Warmup Convergence Information,THERMAL ZONE 3,RunPeriod: RUN PERIOD 1,1.6306452696E-003,1.1989989323E-003,Pass,Pass,0.1883522025,0.6276434059,Pass,Pass
 Warmup Convergence Information,THERMAL ZONE 24,RunPeriod: RUN PERIOD 1,1.9705687349E-003,1.6740515135E-003,Pass,Pass,0.1457509745,0.5135912035,Pass,Pass
 Warmup Convergence Information,THERMAL ZONE 4,RunPeriod: RUN PERIOD 1,1.7099850900E-003,1.5518809660E-003,Pass,Pass,0.1837141381,0.6225530276,Pass,Pass
 Warmup Convergence Information,THERMAL ZONE 2,RunPeriod: RUN PERIOD 1,2.8628642966E-003,4.3321299710E-003,Pass,Pass,4.6868989281E-002,8.4911715202E-002,Pass,Pass
 Warmup Convergence Information,THERMAL ZONE 6,RunPeriod: RUN PERIOD 1,1.9962512718E-003,1.7540453628E-003,Pass,Pass,1.0858015677E-002,9.1748170113E-003,Pass,Pass
 Warmup Convergence Information,THERMAL ZONE 19,RunPeriod: RUN PERIOD 1,8.4271237762E-002,0.1533246161,Pass,Pass,0.1751392552,0.4492525778,Pass,Pass
 Warmup Convergence Information,THERMAL ZONE 12,RunPeriod: RUN PERIOD 1,1.4083665296E-004,1.3025097414E-004,Pass,Pass,2.8974475334E-002,2.3642436834E-002,Pass,Pass
 Warmup Convergence Information,THERMAL ZONE 18,RunPeriod: RUN PERIOD 1,3.5599190738E-003,5.0214709337E-003,Pass,Pass,8.6553299015E-003,7.8769266504E-003,Pass,Pass
 Warmup Convergence Information,THERMAL ZONE 5,RunPeriod: RUN PERIOD 1,8.4974586546E-002,0.1760479332,Pass,Pass,0.1728707512,0.6689625703,Pass,Pass
 Warmup Convergence Information,THERMAL ZONE 8,RunPeriod: RUN PERIOD 1,8.4476033111E-002,0.1539473858,Pass,Pass,0.1798808179,0.4554988042,Pass,Pass
 Warmup Convergence Information,THERMAL ZONE 25,RunPeriod: RUN PERIOD 1,8.2531579291E-003,7.1130324223E-003,Pass,Pass,8.5619305813E-004,6.5354016840E-004,Pass,Pass
 Warmup Convergence Information,THERMAL ZONE 1,RunPeriod: RUN PERIOD 1,5.4701214396E-004,4.5597581814E-004,Pass,Pass,7.7139477810E-003,4.9240264236E-003,Pass,Pass
 Warmup Convergence Information,THERMAL ZONE 13,RunPeriod: RUN PERIOD 1,1.7652613799E-004,1.5404926256E-004,Pass,Pass,1.9473500042E-002,1.4696945316E-002,Pass,Pass
 Warmup Convergence Information,THERMAL ZONE 15,RunPeriod: RUN PERIOD 1,2.1310191970E-003,1.5997227320E-003,Pass,Pass,1.0594047036E-002,9.1095671642E-003,Pass,Pass
 Warmup Convergence Information,THERMAL ZONE 10,RunPeriod: RUN PERIOD 1,1.7261095556E-003,1.5466677278E-003,Pass,Pass,3.5541433632E-002,5.1271308807E-002,Pass,Pass
 Warmup Convergence Information,THERMAL ZONE 7,RunPeriod: RUN PERIOD 1,1.8596917680E-003,1.5159898980E-003,Pass,Pass,4.7862920365E-002,7.3920160827E-002,Pass,Pass
 Warmup Convergence Information,THERMAL ZONE 14,RunPeriod: RUN PERIOD 1,6.5667221909E-004,1.0709601024E-003,Pass,Pass,1.2749918773E-002,9.9497038611E-003,Pass,Pass
 Warmup Convergence Information,THERMAL ZONE 16,RunPeriod: RUN PERIOD 1,1.7760763580E-003,1.5129399722E-003,Pass,Pass,4.6040733960E-002,6.9033782117E-002,Pass,Pass
 Warmup Convergence Information,THERMAL ZONE 21,RunPeriod: RUN PERIOD 1,1.7780564291E-003,1.4319666451E-003,Pass,Pass,0.2009356547,0.7391475374,Pass,Pass
 Warmup Convergence Information,THERMAL ZONE 23,RunPeriod: RUN PERIOD 1,7.1231397589E-002,0.1402361959,Pass,Pass,0.1954775013,0.5907436495,Pass,Pass
 Warmup Convergence Information,THERMAL ZONE 17,RunPeriod: RUN PERIOD 1,1.9332752379E-003,1.7181522620E-003,Pass,Pass,1.0925707471E-002,8.4691847525E-003,Pass,Pass
 Warmup Convergence Information,THERMAL ZONE 22,RunPeriod: RUN PERIOD 1,2.3718377742E-003,1.6453439616E-003,Pass,Pass,9.5545089836E-003,7.6701040014E-003,Pass,Pass
! <Program Control Information:Threads/Parallel Sims>, Threading Supported,Maximum Number of Threads, Env Set Threads (OMP_NUM_THREADS), EP Env Set Threads (EP_OMP_NUM_THREADS), IDF Set Threads, Number of Threads Used (Interior Radiant Exchange), Number Nominal Surfaces, Number Parallel Sims
Program Control:Threads/Parallel Sims, Yes,1, Not Set, Not Set, 1, 1, 170, N/A
End of Data
