Program Version,EnergyPlus-Linux-OMP-32 7.2.0.006, YMD=2013.01.09 18:25
