Program Version,EnergyPlus-Linux-OMP-32 7.2.0.006, YMD=2013.01.08 21:21
