Program Version,EnergyPlus, Linux, VERSION 7.1.0.012, YMD=2013.01.07 19:34,IDD_Version 7.1.0.012
   ************* IDF Context for following error/warning message:
   ************* Note -- lines truncated at 300 characters, if necessary...
   *************    501 Coil:Cooling:DX:TwoSpeed,
   ************* indicated Name=Coil Cooling DX Two Speed 1
   ************* Only last 7 lines before error line shown.....
   *************    502   Coil Cooling DX Two Speed 1,            !- Name
   *************    503   Always_On,                              !- Availability Schedule Name
   *************    504   Autosize,                               !- Rated High Speed Total Cooling Capacity {W}
   *************    505   Autosize,                               !- Rated High Speed Sensible Heat Ratio
   *************    506   5.5,                                    !- Rated High Speed COP {W/W}
   *************    507   Autosize,                               !- Rated High Speed Air Flow Rate {m3/s}
   *************    508   ,                                       !- Unit Internal Static Air Pressure {Pa}
   ** Severe  ** IP: IDF line~508 Error detected in Object=COIL:COOLING:DX:TWOSPEED, name=COIL COOLING DX TWO SPEED 1
   **   ~~~   ** Field [Air Inlet Node Name] is required but was blank
   ************* IDF Context for following error/warning message:
   ************* Note -- lines truncated at 300 characters, if necessary...
   *************    501 Coil:Cooling:DX:TwoSpeed,
   ************* indicated Name=Coil Cooling DX Two Speed 1
   ************* Only last 10 lines before error line shown.....
   *************    506   5.5,                                    !- Rated High Speed COP {W/W}
   *************    507   Autosize,                               !- Rated High Speed Air Flow Rate {m3/s}
   *************    508   ,                                       !- Unit Internal Static Air Pressure {Pa}
   *************    509   Node 18,                                !- Air Inlet Node Name
   *************    510   Node 19,                                !- Air Outlet Node Name
   *************    511   Curve Biquadratic 1,                    !- Total Cooling Capacity Function of Temperature Curve Name
   *************    512   Curve Quadratic 1,                      !- Total Cooling Capacity Function of Flow Fraction Curve Name
   *************    513   Curve Biquadratic 2,                    !- Energy Input Ratio Function of Temperature Curve Name
   *************    514   Curve Quadratic 2,                      !- Energy Input Ratio Function of Flow Fraction Curve Name
   *************    515   Curve Quadratic 3,                      !- Part Load Fraction Correlation Curve Name
   ** Severe  ** IP: IDF line~515 Invalid Number in Numeric Field#5 (Rated Low Speed Total Cooling Capacity), value=CURVE QUADRATIC 3, in COIL:COOLING:DX:TWOSPEED=COIL COOLING DX TWO SPEED 1
   ************* IDF Context for following error/warning message:
   ************* Note -- lines truncated at 300 characters, if necessary...
   *************   2473 Sizing:Zone,
   ************* indicated Name=Thermal Zone 4
   ************* Only last 2 lines before error line shown.....
   *************   2474   Thermal Zone 4,                         !- Zone or ZoneList Name
   *************   2475   SupplyAirTemperature,                   !- Zone Cooling Design Supply Air Temperature Input Method
   ** Severe  ** IP: IDF line~2475 Invalid Number in Numeric Field#1 (Zone Cooling Design Supply Air Temperature), value=SUPPLYAIRTEMPERATURE, in SIZING:ZONE=THERMAL ZONE 4
   ************* IDF Context for following error/warning message:
   ************* Note -- lines truncated at 300 characters, if necessary...
   *************   2662 Sizing:Zone,
   ************* indicated Name=Thermal Zone 3
   ************* Only last 2 lines before error line shown.....
   *************   2663   Thermal Zone 3,                         !- Zone or ZoneList Name
   *************   2664   SupplyAirTemperature,                   !- Zone Cooling Design Supply Air Temperature Input Method
   ** Severe  ** IP: IDF line~2664 Invalid Number in Numeric Field#1 (Zone Cooling Design Supply Air Temperature), value=SUPPLYAIRTEMPERATURE, in SIZING:ZONE=THERMAL ZONE 3
   ************* IDF Context for following error/warning message:
   ************* Note -- lines truncated at 300 characters, if necessary...
   *************   2851 Sizing:Zone,
   ************* indicated Name=Thermal Zone 6
   ************* Only last 2 lines before error line shown.....
   *************   2852   Thermal Zone 6,                         !- Zone or ZoneList Name
   *************   2853   SupplyAirTemperature,                   !- Zone Cooling Design Supply Air Temperature Input Method
   ** Severe  ** IP: IDF line~2853 Invalid Number in Numeric Field#1 (Zone Cooling Design Supply Air Temperature), value=SUPPLYAIRTEMPERATURE, in SIZING:ZONE=THERMAL ZONE 6
   ************* IDF Context for following error/warning message:
   ************* Note -- lines truncated at 300 characters, if necessary...
   *************   3024 Sizing:Zone,
   ************* indicated Name=Thermal Zone 10
   ************* Only last 2 lines before error line shown.....
   *************   3025   Thermal Zone 10,                        !- Zone or ZoneList Name
   *************   3026   SupplyAirTemperature,                   !- Zone Cooling Design Supply Air Temperature Input Method
   ** Severe  ** IP: IDF line~3026 Invalid Number in Numeric Field#1 (Zone Cooling Design Supply Air Temperature), value=SUPPLYAIRTEMPERATURE, in SIZING:ZONE=THERMAL ZONE 10
   ************* IDF Context for following error/warning message:
   ************* Note -- lines truncated at 300 characters, if necessary...
   *************   3197 Sizing:Zone,
   ************* indicated Name=Thermal Zone 8
   ************* Only last 2 lines before error line shown.....
   *************   3198   Thermal Zone 8,                         !- Zone or ZoneList Name
   *************   3199   SupplyAirTemperature,                   !- Zone Cooling Design Supply Air Temperature Input Method
   ** Severe  ** IP: IDF line~3199 Invalid Number in Numeric Field#1 (Zone Cooling Design Supply Air Temperature), value=SUPPLYAIRTEMPERATURE, in SIZING:ZONE=THERMAL ZONE 8
   ************* IDF Context for following error/warning message:
   ************* Note -- lines truncated at 300 characters, if necessary...
   *************   3386 Sizing:Zone,
   ************* indicated Name=Thermal Zone 2
   ************* Only last 2 lines before error line shown.....
   *************   3387   Thermal Zone 2,                         !- Zone or ZoneList Name
   *************   3388   SupplyAirTemperature,                   !- Zone Cooling Design Supply Air Temperature Input Method
   ** Severe  ** IP: IDF line~3388 Invalid Number in Numeric Field#1 (Zone Cooling Design Supply Air Temperature), value=SUPPLYAIRTEMPERATURE, in SIZING:ZONE=THERMAL ZONE 2
   ************* IDF Context for following error/warning message:
   ************* Note -- lines truncated at 300 characters, if necessary...
   *************   3575 Sizing:Zone,
   ************* indicated Name=Thermal Zone 9
   ************* Only last 2 lines before error line shown.....
   *************   3576   Thermal Zone 9,                         !- Zone or ZoneList Name
   *************   3577   SupplyAirTemperature,                   !- Zone Cooling Design Supply Air Temperature Input Method
   ** Severe  ** IP: IDF line~3577 Invalid Number in Numeric Field#1 (Zone Cooling Design Supply Air Temperature), value=SUPPLYAIRTEMPERATURE, in SIZING:ZONE=THERMAL ZONE 9
   ************* IDF Context for following error/warning message:
   ************* Note -- lines truncated at 300 characters, if necessary...
   *************   3764 Sizing:Zone,
   ************* indicated Name=Thermal Zone 5
   ************* Only last 2 lines before error line shown.....
   *************   3765   Thermal Zone 5,                         !- Zone or ZoneList Name
   *************   3766   SupplyAirTemperature,                   !- Zone Cooling Design Supply Air Temperature Input Method
   ** Severe  ** IP: IDF line~3766 Invalid Number in Numeric Field#1 (Zone Cooling Design Supply Air Temperature), value=SUPPLYAIRTEMPERATURE, in SIZING:ZONE=THERMAL ZONE 5
   ************* IDF Context for following error/warning message:
   ************* Note -- lines truncated at 300 characters, if necessary...
   *************   3953 Sizing:Zone,
   ************* indicated Name=Thermal Zone 7
   ************* Only last 2 lines before error line shown.....
   *************   3954   Thermal Zone 7,                         !- Zone or ZoneList Name
   *************   3955   SupplyAirTemperature,                   !- Zone Cooling Design Supply Air Temperature Input Method
   ** Severe  ** IP: IDF line~3955 Invalid Number in Numeric Field#1 (Zone Cooling Design Supply Air Temperature), value=SUPPLYAIRTEMPERATURE, in SIZING:ZONE=THERMAL ZONE 7
   ************* IDF Context for following error/warning message:
   ************* Note -- lines truncated at 300 characters, if necessary...
   *************   4142 Sizing:Zone,
   ************* indicated Name=Thermal Zone 1
   ************* Only last 2 lines before error line shown.....
   *************   4143   Thermal Zone 1,                         !- Zone or ZoneList Name
   *************   4144   SupplyAirTemperature,                   !- Zone Cooling Design Supply Air Temperature Input Method
   ** Severe  ** IP: IDF line~4144 Invalid Number in Numeric Field#1 (Zone Cooling Design Supply Air Temperature), value=SUPPLYAIRTEMPERATURE, in SIZING:ZONE=THERMAL ZONE 1
   ** Severe  ** IP: Blank "required" fields found in input
   ** Severe  ** IP: Possible incorrect IDD File
   **   ~~~   ** IDD Version:"IDD_Version 7.1.0.012"
   **   ~~~   ** Version in IDF="7.2" not the same as expected="7.1.0"
   **   ~~~   ** Possible Invalid Numerics or other problems
   **  Fatal  ** IP: Errors occurred on processing IDF file. Preceding condition(s) cause termination.
   ...Summary of Errors that led to program termination:
   ..... Reference severe error count=14
   ..... Last severe error=IP: Possible incorrect IDD File
   ************* Warning:  Node connection errors not checked - most system input has not been read (see previous warning).
   ************* Fatal error -- final processing.  Program exited before simulations began.  See previous error messages.
   ************* EnergyPlus Warmup Error Summary. During Warmup: 0 Warning; 0 Severe Errors.
   ************* EnergyPlus Sizing Error Summary. During Sizing: 0 Warning; 0 Severe Errors.
   ************* EnergyPlus Terminated--Fatal Error Detected. 0 Warning; 14 Severe Errors; Elapsed Time=00hr 00min  7.35sec
