Program Version,EnergyPlus, Linux, VERSION 7.1.0.012, YMD=2013.01.07 19:30,IDD_Version 7.1.0.012
   ************* IDF Context for following error/warning message:
   ************* Note -- lines truncated at 300 characters, if necessary...
   *************    501 Coil:Cooling:DX:TwoSpeed,
   ************* indicated Name=Coil Cooling DX Two Speed 1
   ************* Only last 7 lines before error line shown.....
   *************    502   Coil Cooling DX Two Speed 1,            !- Name
   *************    503   Always_On,                              !- Availability Schedule Name
   *************    504   Autosize,                               !- Rated High Speed Total Cooling Capacity {W}
   *************    505   Autosize,                               !- Rated High Speed Sensible Heat Ratio
   *************    506   5.5,                                    !- Rated High Speed COP {W/W}
   *************    507   Autosize,                               !- Rated High Speed Air Flow Rate {m3/s}
   *************    508   ,                                       !- Unit Internal Static Air Pressure {Pa}
   ** Severe  ** IP: IDF line~508 Error detected in Object=COIL:COOLING:DX:TWOSPEED, name=COIL COOLING DX TWO SPEED 1
   **   ~~~   ** Field [Air Inlet Node Name] is required but was blank
   ************* IDF Context for following error/warning message:
   ************* Note -- lines truncated at 300 characters, if necessary...
   *************    501 Coil:Cooling:DX:TwoSpeed,
   ************* indicated Name=Coil Cooling DX Two Speed 1
   ************* Only last 10 lines before error line shown.....
   *************    506   5.5,                                    !- Rated High Speed COP {W/W}
   *************    507   Autosize,                               !- Rated High Speed Air Flow Rate {m3/s}
   *************    508   ,                                       !- Unit Internal Static Air Pressure {Pa}
   *************    509   Node 23,                                !- Air Inlet Node Name
   *************    510   Node 24,                                !- Air Outlet Node Name
   *************    511   Curve Biquadratic 1,                    !- Total Cooling Capacity Function of Temperature Curve Name
   *************    512   Curve Quadratic 1,                      !- Total Cooling Capacity Function of Flow Fraction Curve Name
   *************    513   Curve Biquadratic 2,                    !- Energy Input Ratio Function of Temperature Curve Name
   *************    514   Curve Quadratic 2,                      !- Energy Input Ratio Function of Flow Fraction Curve Name
   *************    515   Curve Quadratic 3,                      !- Part Load Fraction Correlation Curve Name
   ** Severe  ** IP: IDF line~515 Invalid Number in Numeric Field#5 (Rated Low Speed Total Cooling Capacity), value=CURVE QUADRATIC 3, in COIL:COOLING:DX:TWOSPEED=COIL COOLING DX TWO SPEED 1
   ************* IDF Context for following error/warning message:
   ************* Note -- lines truncated at 300 characters, if necessary...
   *************   2768 Sizing:Zone,
   ************* indicated Name=Thermal Zone 7
   ************* Only last 2 lines before error line shown.....
   *************   2769   Thermal Zone 7,                         !- Zone or ZoneList Name
   *************   2770   SupplyAirTemperature,                   !- Zone Cooling Design Supply Air Temperature Input Method
   ** Severe  ** IP: IDF line~2770 Invalid Number in Numeric Field#1 (Zone Cooling Design Supply Air Temperature), value=SUPPLYAIRTEMPERATURE, in SIZING:ZONE=THERMAL ZONE 7
   ************* IDF Context for following error/warning message:
   ************* Note -- lines truncated at 300 characters, if necessary...
   *************   2957 Sizing:Zone,
   ************* indicated Name=Thermal Zone 10
   ************* Only last 2 lines before error line shown.....
   *************   2958   Thermal Zone 10,                        !- Zone or ZoneList Name
   *************   2959   SupplyAirTemperature,                   !- Zone Cooling Design Supply Air Temperature Input Method
   ** Severe  ** IP: IDF line~2959 Invalid Number in Numeric Field#1 (Zone Cooling Design Supply Air Temperature), value=SUPPLYAIRTEMPERATURE, in SIZING:ZONE=THERMAL ZONE 10
   ************* IDF Context for following error/warning message:
   ************* Note -- lines truncated at 300 characters, if necessary...
   *************   3146 Sizing:Zone,
   ************* indicated Name=Thermal Zone 11
   ************* Only last 2 lines before error line shown.....
   *************   3147   Thermal Zone 11,                        !- Zone or ZoneList Name
   *************   3148   SupplyAirTemperature,                   !- Zone Cooling Design Supply Air Temperature Input Method
   ** Severe  ** IP: IDF line~3148 Invalid Number in Numeric Field#1 (Zone Cooling Design Supply Air Temperature), value=SUPPLYAIRTEMPERATURE, in SIZING:ZONE=THERMAL ZONE 11
   ************* IDF Context for following error/warning message:
   ************* Note -- lines truncated at 300 characters, if necessary...
   *************   3319 Sizing:Zone,
   ************* indicated Name=Thermal Zone 2
   ************* Only last 2 lines before error line shown.....
   *************   3320   Thermal Zone 2,                         !- Zone or ZoneList Name
   *************   3321   SupplyAirTemperature,                   !- Zone Cooling Design Supply Air Temperature Input Method
   ** Severe  ** IP: IDF line~3321 Invalid Number in Numeric Field#1 (Zone Cooling Design Supply Air Temperature), value=SUPPLYAIRTEMPERATURE, in SIZING:ZONE=THERMAL ZONE 2
   ************* IDF Context for following error/warning message:
   ************* Note -- lines truncated at 300 characters, if necessary...
   *************   3492 Sizing:Zone,
   ************* indicated Name=Thermal Zone 12
   ************* Only last 2 lines before error line shown.....
   *************   3493   Thermal Zone 12,                        !- Zone or ZoneList Name
   *************   3494   SupplyAirTemperature,                   !- Zone Cooling Design Supply Air Temperature Input Method
   ** Severe  ** IP: IDF line~3494 Invalid Number in Numeric Field#1 (Zone Cooling Design Supply Air Temperature), value=SUPPLYAIRTEMPERATURE, in SIZING:ZONE=THERMAL ZONE 12
   ************* IDF Context for following error/warning message:
   ************* Note -- lines truncated at 300 characters, if necessary...
   *************   3681 Sizing:Zone,
   ************* indicated Name=Thermal Zone 1
   ************* Only last 2 lines before error line shown.....
   *************   3682   Thermal Zone 1,                         !- Zone or ZoneList Name
   *************   3683   SupplyAirTemperature,                   !- Zone Cooling Design Supply Air Temperature Input Method
   ** Severe  ** IP: IDF line~3683 Invalid Number in Numeric Field#1 (Zone Cooling Design Supply Air Temperature), value=SUPPLYAIRTEMPERATURE, in SIZING:ZONE=THERMAL ZONE 1
   ************* IDF Context for following error/warning message:
   ************* Note -- lines truncated at 300 characters, if necessary...
   *************   3870 Sizing:Zone,
   ************* indicated Name=Thermal Zone 3
   ************* Only last 2 lines before error line shown.....
   *************   3871   Thermal Zone 3,                         !- Zone or ZoneList Name
   *************   3872   SupplyAirTemperature,                   !- Zone Cooling Design Supply Air Temperature Input Method
   ** Severe  ** IP: IDF line~3872 Invalid Number in Numeric Field#1 (Zone Cooling Design Supply Air Temperature), value=SUPPLYAIRTEMPERATURE, in SIZING:ZONE=THERMAL ZONE 3
   ************* IDF Context for following error/warning message:
   ************* Note -- lines truncated at 300 characters, if necessary...
   *************   4059 Sizing:Zone,
   ************* indicated Name=Thermal Zone 5
   ************* Only last 2 lines before error line shown.....
   *************   4060   Thermal Zone 5,                         !- Zone or ZoneList Name
   *************   4061   SupplyAirTemperature,                   !- Zone Cooling Design Supply Air Temperature Input Method
   ** Severe  ** IP: IDF line~4061 Invalid Number in Numeric Field#1 (Zone Cooling Design Supply Air Temperature), value=SUPPLYAIRTEMPERATURE, in SIZING:ZONE=THERMAL ZONE 5
   ************* IDF Context for following error/warning message:
   ************* Note -- lines truncated at 300 characters, if necessary...
   *************   4248 Sizing:Zone,
   ************* indicated Name=Thermal Zone 6
   ************* Only last 2 lines before error line shown.....
   *************   4249   Thermal Zone 6,                         !- Zone or ZoneList Name
   *************   4250   SupplyAirTemperature,                   !- Zone Cooling Design Supply Air Temperature Input Method
   ** Severe  ** IP: IDF line~4250 Invalid Number in Numeric Field#1 (Zone Cooling Design Supply Air Temperature), value=SUPPLYAIRTEMPERATURE, in SIZING:ZONE=THERMAL ZONE 6
   ************* IDF Context for following error/warning message:
   ************* Note -- lines truncated at 300 characters, if necessary...
   *************   4437 Sizing:Zone,
   ************* indicated Name=Thermal Zone 13
   ************* Only last 2 lines before error line shown.....
   *************   4438   Thermal Zone 13,                        !- Zone or ZoneList Name
   *************   4439   SupplyAirTemperature,                   !- Zone Cooling Design Supply Air Temperature Input Method
   ** Severe  ** IP: IDF line~4439 Invalid Number in Numeric Field#1 (Zone Cooling Design Supply Air Temperature), value=SUPPLYAIRTEMPERATURE, in SIZING:ZONE=THERMAL ZONE 13
   ************* IDF Context for following error/warning message:
   ************* Note -- lines truncated at 300 characters, if necessary...
   *************   4626 Sizing:Zone,
   ************* indicated Name=Thermal Zone 8
   ************* Only last 2 lines before error line shown.....
   *************   4627   Thermal Zone 8,                         !- Zone or ZoneList Name
   *************   4628   SupplyAirTemperature,                   !- Zone Cooling Design Supply Air Temperature Input Method
   ** Severe  ** IP: IDF line~4628 Invalid Number in Numeric Field#1 (Zone Cooling Design Supply Air Temperature), value=SUPPLYAIRTEMPERATURE, in SIZING:ZONE=THERMAL ZONE 8
   ************* IDF Context for following error/warning message:
   ************* Note -- lines truncated at 300 characters, if necessary...
   *************   4815 Sizing:Zone,
   ************* indicated Name=Thermal Zone 14
   ************* Only last 2 lines before error line shown.....
   *************   4816   Thermal Zone 14,                        !- Zone or ZoneList Name
   *************   4817   SupplyAirTemperature,                   !- Zone Cooling Design Supply Air Temperature Input Method
   ** Severe  ** IP: IDF line~4817 Invalid Number in Numeric Field#1 (Zone Cooling Design Supply Air Temperature), value=SUPPLYAIRTEMPERATURE, in SIZING:ZONE=THERMAL ZONE 14
   ************* IDF Context for following error/warning message:
   ************* Note -- lines truncated at 300 characters, if necessary...
   *************   4988 Sizing:Zone,
   ************* indicated Name=Thermal Zone 15
   ************* Only last 2 lines before error line shown.....
   *************   4989   Thermal Zone 15,                        !- Zone or ZoneList Name
   *************   4990   SupplyAirTemperature,                   !- Zone Cooling Design Supply Air Temperature Input Method
   ** Severe  ** IP: IDF line~4990 Invalid Number in Numeric Field#1 (Zone Cooling Design Supply Air Temperature), value=SUPPLYAIRTEMPERATURE, in SIZING:ZONE=THERMAL ZONE 15
   ************* IDF Context for following error/warning message:
   ************* Note -- lines truncated at 300 characters, if necessary...
   *************   5177 Sizing:Zone,
   ************* indicated Name=Thermal Zone 9
   ************* Only last 2 lines before error line shown.....
   *************   5178   Thermal Zone 9,                         !- Zone or ZoneList Name
   *************   5179   SupplyAirTemperature,                   !- Zone Cooling Design Supply Air Temperature Input Method
   ** Severe  ** IP: IDF line~5179 Invalid Number in Numeric Field#1 (Zone Cooling Design Supply Air Temperature), value=SUPPLYAIRTEMPERATURE, in SIZING:ZONE=THERMAL ZONE 9
   ************* IDF Context for following error/warning message:
   ************* Note -- lines truncated at 300 characters, if necessary...
   *************   5366 Sizing:Zone,
   ************* indicated Name=Thermal Zone 4
   ************* Only last 2 lines before error line shown.....
   *************   5367   Thermal Zone 4,                         !- Zone or ZoneList Name
   *************   5368   SupplyAirTemperature,                   !- Zone Cooling Design Supply Air Temperature Input Method
   ** Severe  ** IP: IDF line~5368 Invalid Number in Numeric Field#1 (Zone Cooling Design Supply Air Temperature), value=SUPPLYAIRTEMPERATURE, in SIZING:ZONE=THERMAL ZONE 4
   ** Severe  ** IP: Blank "required" fields found in input
   ** Severe  ** IP: Possible incorrect IDD File
   **   ~~~   ** IDD Version:"IDD_Version 7.1.0.012"
   **   ~~~   ** Version in IDF="7.2" not the same as expected="7.1.0"
   **   ~~~   ** Possible Invalid Numerics or other problems
   **  Fatal  ** IP: Errors occurred on processing IDF file. Preceding condition(s) cause termination.
   ...Summary of Errors that led to program termination:
   ..... Reference severe error count=19
   ..... Last severe error=IP: Possible incorrect IDD File
   ************* Warning:  Node connection errors not checked - most system input has not been read (see previous warning).
   ************* Fatal error -- final processing.  Program exited before simulations began.  See previous error messages.
   ************* EnergyPlus Warmup Error Summary. During Warmup: 0 Warning; 0 Severe Errors.
   ************* EnergyPlus Sizing Error Summary. During Sizing: 0 Warning; 0 Severe Errors.
   ************* EnergyPlus Terminated--Fatal Error Detected. 0 Warning; 19 Severe Errors; Elapsed Time=00hr 00min  0.75sec
