Program Version,EnergyPlus-Linux-OMP-32 7.2.0.006, YMD=2013.01.10 16:12
! <Version>, Version ID
 Version, 7.2
! <Timesteps per Hour>, #TimeSteps, Minutes per TimeStep {minutes}
 Timesteps per Hour,  4, 15
! <System Convergence Limits>, Minimum System TimeStep {minutes}, Max HVAC Iterations,  Minimum Plant Iterations, Maximum Plant Iterations
 System Convergence Limits, 1, 20, 2, 8
! <Simulation Control>, Do Zone Sizing, Do System Sizing, Do Plant Sizing, Do Design Days, Do Weather Simulation
 Simulation Control, Yes, Yes, Yes, Yes, Yes
! <Output Reporting Tolerances>, Tolerance for Time Heating Setpoint Not Met, Tolerance for Time Cooling Setpoint Not Met
 Output Reporting Tolerances, 0.200, 0.200, 
! <Site:GroundTemperature:BuildingSurface>, Months From Jan to Dec {Deg C}
 Site:GroundTemperature:BuildingSurface,  18.00,  18.00,  18.00,  18.00,  18.00,  18.00,  18.00,  18.00,  18.00,  18.00,  18.00,  18.00
! <Site:GroundTemperature:FCfactorMethod>, Months From Jan to Dec {Deg C}
 Site:GroundTemperature:FCfactorMethod,  10.86,  10.57,  11.08,  11.88,  13.97,  15.58,  16.67,  17.00,  16.44,  15.19,  13.51,  11.96
! <Site:GroundTemperature:Shallow>, Months From Jan to Dec {Deg C}
 Site:GroundTemperature:Shallow,  13.00,  13.00,  13.00,  13.00,  13.00,  13.00,  13.00,  13.00,  13.00,  13.00,  13.00,  13.00
! <Site:GroundTemperature:Deep>, Months From Jan to Dec {Deg C}
 Site:GroundTemperature:Deep,  16.00,  16.00,  16.00,  16.00,  16.00,  16.00,  16.00,  16.00,  16.00,  16.00,  16.00,  16.00
! <Site:GroundReflectance>, Months From Jan to Dec {dimensionless}
 Site:GroundReflectance,  0.20,  0.20,  0.20,  0.20,  0.20,  0.20,  0.20,  0.20,  0.20,  0.20,  0.20,  0.20
! <Site:GroundReflectance:SnowModifier>, Normal, Daylighting {dimensionless}
 Site:GroundReflectance:SnowModifier,   1.000,   1.000
! <Site:GroundReflectance:Snow>, Months From Jan to Dec {dimensionless}
 Site:GroundReflectance:Snow,  0.20,  0.20,  0.20,  0.20,  0.20,  0.20,  0.20,  0.20,  0.20,  0.20,  0.20,  0.20
! <Site:GroundReflectance:Snow:Daylighting>, Months From Jan to Dec {dimensionless}
 Site:GroundReflectance:Snow:Daylighting,  0.20,  0.20,  0.20,  0.20,  0.20,  0.20,  0.20,  0.20,  0.20,  0.20,  0.20,  0.20
! <Environment:Weather Station>,Wind Sensor Height Above Ground {m},Wind Speed Profile Exponent {},Wind Speed Profile Boundary Layer Thickness {m},Air Temperature Sensor Height Above Ground {m},Wind Speed Modifier Coefficient [Internal],Temperature Modifier Coefficient [Internal]
Environment:Weather Station,10.000,0.140,270.000,1.500,1.586,9.750E-003
! <Site:Location>, Location Name, Latitude {N+/S- Deg}, Longitude {E+/W- Deg},  Time Zone Number {GMT+/-}, Elevation {m},  Standard Pressure at Elevation {Pa}, Standard RhoAir at Elevation
Site:Location,San Francisco Intl Ap CA USA TMY3 WMO#=724940,37.62,-122.40,-8.00,2.00,101301,1.2040
! <Building Information>, Building Name,North Axis {deg},Terrain,  Loads Convergence Tolerance Value,Temperature Convergence Tolerance Value,  Solar Distribution,Maximum Number of Warmup Days,Minimum Number of Warmup Days
 Building Information,Building 1,0.000,Suburbs,4.00000E-002,0.40000,FullExterior,25,6
! <Inside Convection Algorithm>, Algorithm {Simple | TARP | CeilingDiffuser | AdaptiveConvectionAlgorithm}
Inside Convection Algorithm,TARP
! <Outside Convection Algorithm>, Algorithm {SimpleCombined | TARP | MoWitt | DOE-2 | AdaptiveConvectionAlgorithm}
Outside Convection Algorithm,DOE-2
! <Sky Radiance Distribution>, Value {Anisotropic}
Sky Radiance Distribution,Anisotropic
! <Zone Air Solution Algorithm>, Value {ThirdOrderBackwardDifference | AnalyticalSolution | EulerMethod}
 Zone Air Solution Algorithm, ThirdOrderBackwardDifference
! <Zone Air Contaminant Balance Simulation>, Simulation {Yes/No}, Carbon Dioxide Concentration
 Zone Air Carbon Dioxide Balance Simulation, No,N/A
! <Zone Air Contaminant Balance Simulation>, Simulation {Yes/No}, Generic Contaminant Concentration
 Zone Air Generic Contaminant Balance Simulation, No,N/A
! <Environment:Site Atmospheric Variation>,Wind Speed Profile Exponent {},Wind Speed Profile Boundary Layer Thickness {m},Air Temperature Gradient Coefficient {K/m}
Environment:Site Atmospheric Variation,0.220,370.000,6.500000E-003
! <SurfaceGeometry>,Starting Corner,Vertex Input Direction,Coordinate System,Daylight Reference Point Coordinate System,Rectangular (Simple) Surface Coordinate System
 Surface Geometry,UpperLeftCorner,Counterclockwise,RelativeCoordinateSystem,RelativeCoordinateSystem,RelativeToZoneOrigin
! <Surface Heat Transfer Algorithm>, Value {CTF - ConductionTransferFunction | EMPD - MoisturePenetrationDepthConductionTransferFunction | CondFD - ConductionFiniteDifference | HAMT - CombinedHeatAndMoistureFiniteElement} - Description,Inside Surface Max Temperature Limit{C}, Surface Convection Coefficient Lower Limit {W/m2-K}, Surface Convection Coefficient Upper Limit {W/m2-K}
Surface Heat Transfer Algorithm, CTF - ConductionTransferFunction,200,0.10,1000.0
! <Shading Summary>, Number of Fixed Detached Shades, Number of Building Detached Shades, Number of Attached Shades
 Shading Summary,0,0,0
! <Zone Summary>, Number of Zones, Number of Zone Surfaces, Number of SubSurfaces
 Zone Summary,115,782,92
! <Zone Information>,Zone Name,North Axis {deg},Origin X-Coordinate {m},Origin Y-Coordinate {m},Origin Z-Coordinate {m},Centroid X-Coordinate {m},Centroid Y-Coordinate {m},Centroid Z-Coordinate {m},Type,Zone Multiplier,Zone List Multiplier,Minimum X {m},Maximum X {m},Minimum Y {m},Maximum Y {m},Minimum Z {m},Maximum Z {m},Ceiling Height {m},Volume {m3},Zone Inside Convection Algorithm {Simple-Detailed-CeilingDiffuser-TrombeWall},Zone Outside Convection Algorithm {Simple-Detailed-Tarp-MoWitt-DOE-2-BLAST}, Floor Area {m2},Exterior Gross Wall Area {m2},Exterior Net Wall Area {m2},Exterior Window Area {m2}, Number of Surfaces, Number of SubSurfaces, Number of Shading SubSurfaces,  Part of Total Building Area
 Zone Information, THERMAL ZONE 43,0.0,0.00,0.00,0.00,1.28,7.65,2.00,1,1,1,0.00,3.00,0.00,15.30,0.00,4.00,4.00,147.56,TARP,DOE-2,36.89,61.19,47.11,14.07,6,1,0,Yes
 Zone Information, THERMAL ZONE 72,0.0,3.00,12.30,80.00,7.65,14.02,82.00,1,1,1,0.00,15.30,12.30,15.30,80.00,84.00,4.00,147.56,TARP,DOE-2,36.89,61.19,47.11,14.07,6,1,0,Yes
 Zone Information, THERMAL ZONE 49,0.0,0.00,0.00,32.00,1.28,7.65,34.00,1,1,1,0.00,3.00,0.00,15.30,32.00,36.00,4.00,147.56,TARP,DOE-2,36.89,61.19,47.11,14.07,6,1,0,Yes
 Zone Information, THERMAL ZONE 38,0.0,3.00,3.00,76.00,7.65,7.65,78.00,1,1,1,3.00,12.30,3.00,12.30,76.00,80.00,4.00,345.74,TARP,DOE-2,86.44,0.00,0.00,0.00,6,0,0,Yes
 Zone Information, THERMAL ZONE 37,0.0,0.00,0.00,28.00,7.65,1.28,30.00,1,1,1,0.00,15.30,0.00,3.00,28.00,32.00,4.00,147.56,TARP,DOE-2,36.89,61.19,47.11,14.07,6,1,0,Yes
 Zone Information, THERMAL ZONE 83,0.0,12.30,3.00,8.00,14.02,7.65,10.00,1,1,1,12.30,15.30,0.00,15.30,8.00,12.00,4.00,147.56,TARP,DOE-2,36.89,61.19,47.11,14.07,6,1,0,Yes
 Zone Information, THERMAL ZONE 95,0.0,12.30,3.00,40.00,14.02,7.65,42.00,1,1,1,12.30,15.30,0.00,15.30,40.00,44.00,4.00,147.56,TARP,DOE-2,36.89,61.19,47.11,14.07,6,1,0,Yes
 Zone Information, THERMAL ZONE 9,0.0,12.30,3.00,4.00,14.02,7.65,6.00,1,1,1,12.30,15.30,0.00,15.30,4.00,8.00,4.00,147.56,TARP,DOE-2,36.89,61.19,47.11,14.07,6,1,0,Yes
 Zone Information, THERMAL ZONE 17,0.0,12.30,3.00,0.00,14.02,7.65,2.00,1,1,1,12.30,15.30,0.00,15.30,0.00,4.00,4.00,147.56,TARP,DOE-2,36.89,61.19,47.11,14.07,6,1,0,Yes
 Zone Information, THERMAL ZONE 67,0.0,3.00,3.00,64.00,7.65,7.65,66.00,1,1,1,3.00,12.30,3.00,12.30,64.00,68.00,4.00,345.74,TARP,DOE-2,86.44,0.00,0.00,0.00,6,0,0,Yes
 Zone Information, THERMAL ZONE 50,0.0,3.00,12.30,12.00,7.65,14.02,14.00,1,1,1,0.00,15.30,12.30,15.30,12.00,16.00,4.00,147.56,TARP,DOE-2,36.89,61.19,47.11,14.07,6,1,0,Yes
 Zone Information, THERMAL ZONE 18,0.0,0.00,0.00,20.00,1.28,7.65,22.00,1,1,1,0.00,3.00,0.00,15.30,20.00,24.00,4.00,147.56,TARP,DOE-2,36.89,61.19,47.11,14.07,6,1,0,Yes
 Zone Information, THERMAL ZONE 6,0.0,3.00,12.30,32.00,7.65,14.02,34.00,1,1,1,0.00,15.30,12.30,15.30,32.00,36.00,4.00,147.56,TARP,DOE-2,36.89,61.19,47.11,14.07,6,1,0,Yes
 Zone Information, THERMAL ZONE 39,0.0,12.30,3.00,20.00,14.02,7.65,22.00,1,1,1,12.30,15.30,0.00,15.30,20.00,24.00,4.00,147.56,TARP,DOE-2,36.89,61.19,47.11,14.07,6,1,0,Yes
 Zone Information, THERMAL ZONE 33,0.0,3.00,12.30,0.00,7.65,14.02,2.00,1,1,1,0.00,15.30,12.30,15.30,0.00,4.00,4.00,147.56,TARP,DOE-2,36.89,61.19,47.11,14.07,6,1,0,Yes
 Zone Information, THERMAL ZONE 13,0.0,3.00,3.00,0.00,7.65,7.65,2.00,1,1,1,3.00,12.30,3.00,12.30,0.00,4.00,4.00,345.74,TARP,DOE-2,86.44,0.00,0.00,0.00,6,0,0,Yes
 Zone Information, THERMAL ZONE 84,0.0,3.00,3.00,52.00,7.65,7.65,54.00,1,1,1,3.00,12.30,3.00,12.30,52.00,56.00,4.00,345.74,TARP,DOE-2,86.44,0.00,0.00,0.00,6,0,0,Yes
 Zone Information, THERMAL ZONE 71,0.0,0.00,0.00,88.00,7.65,1.28,90.00,1,1,1,0.00,15.30,0.00,3.00,88.00,92.00,4.00,147.56,TARP,DOE-2,36.89,61.19,47.11,14.07,6,1,0,Yes
 Zone Information, THERMAL ZONE 103,0.0,3.00,12.30,56.00,7.65,14.02,58.00,1,1,1,0.00,15.30,12.30,15.30,56.00,60.00,4.00,147.56,TARP,DOE-2,36.89,61.19,47.11,14.07,6,1,0,Yes
 Zone Information, THERMAL ZONE 75,0.0,3.00,3.00,8.00,7.65,7.65,10.00,1,1,1,3.00,12.30,3.00,12.30,8.00,12.00,4.00,345.74,TARP,DOE-2,86.44,0.00,0.00,0.00,6,0,0,Yes
 Zone Information, THERMAL ZONE 77,0.0,3.00,12.30,16.00,7.65,14.02,18.00,1,1,1,0.00,15.30,12.30,15.30,16.00,20.00,4.00,147.56,TARP,DOE-2,36.89,61.19,47.11,14.07,6,1,0,Yes
 Zone Information, THERMAL ZONE 92,0.0,12.30,3.00,16.00,14.02,7.65,18.00,1,1,1,12.30,15.30,0.00,15.30,16.00,20.00,4.00,147.56,TARP,DOE-2,36.89,61.19,47.11,14.07,6,1,0,Yes
 Zone Information, THERMAL ZONE 42,0.0,3.00,12.30,68.00,7.65,14.02,70.00,1,1,1,0.00,15.30,12.30,15.30,68.00,72.00,4.00,147.56,TARP,DOE-2,36.89,61.19,47.11,14.07,6,1,0,Yes
 Zone Information, THERMAL ZONE 102,0.0,0.00,0.00,76.00,7.65,1.28,78.00,1,1,1,0.00,15.30,0.00,3.00,76.00,80.00,4.00,147.56,TARP,DOE-2,36.89,61.19,47.11,14.07,6,1,0,Yes
 Zone Information, THERMAL ZONE 8,0.0,3.00,3.00,72.00,7.65,7.65,74.00,1,1,1,3.00,12.30,3.00,12.30,72.00,76.00,4.00,345.74,TARP,DOE-2,86.44,0.00,0.00,0.00,6,0,0,Yes
 Zone Information, THERMAL ZONE 55,0.0,0.00,0.00,84.00,1.28,7.65,86.00,1,1,1,0.00,3.00,0.00,15.30,84.00,88.00,4.00,147.56,TARP,DOE-2,36.89,61.19,47.11,14.07,6,1,0,Yes
 Zone Information, THERMAL ZONE 46,0.0,0.00,0.00,48.00,1.28,7.65,50.00,1,1,1,0.00,3.00,0.00,15.30,48.00,52.00,4.00,147.56,TARP,DOE-2,36.89,61.19,47.11,14.07,6,1,0,Yes
 Zone Information, THERMAL ZONE 64,0.0,0.00,0.00,52.00,1.28,7.65,54.00,1,1,1,0.00,3.00,0.00,15.30,52.00,56.00,4.00,147.56,TARP,DOE-2,36.89,61.19,47.11,14.07,6,1,0,Yes
 Zone Information, THERMAL ZONE 69,0.0,3.00,3.00,12.00,7.65,7.65,14.00,1,1,1,3.00,12.30,3.00,12.30,12.00,16.00,4.00,345.74,TARP,DOE-2,86.44,0.00,0.00,0.00,6,0,0,Yes
 Zone Information, THERMAL ZONE 10,0.0,12.30,3.00,48.00,14.02,7.65,50.00,1,1,1,12.30,15.30,0.00,15.30,48.00,52.00,4.00,147.56,TARP,DOE-2,36.89,61.19,47.11,14.07,6,1,0,Yes
 Zone Information, THERMAL ZONE 59,0.0,0.00,0.00,8.00,1.28,7.65,10.00,1,1,1,0.00,3.00,0.00,15.30,8.00,12.00,4.00,147.56,TARP,DOE-2,36.89,61.19,47.11,14.07,6,1,0,Yes
 Zone Information, THERMAL ZONE 93,0.0,3.00,3.00,24.00,7.65,7.65,26.00,1,1,1,3.00,12.30,3.00,12.30,24.00,28.00,4.00,345.74,TARP,DOE-2,86.44,0.00,0.00,0.00,6,0,0,Yes
 Zone Information, THERMAL ZONE 98,0.0,12.30,3.00,88.00,14.02,7.65,90.00,1,1,1,12.30,15.30,0.00,15.30,88.00,92.00,4.00,147.56,TARP,DOE-2,36.89,61.19,47.11,14.07,6,1,0,Yes
 Zone Information, THERMAL ZONE 57,0.0,0.00,0.00,64.00,7.65,1.28,66.00,1,1,1,0.00,15.30,0.00,3.00,64.00,68.00,4.00,147.56,TARP,DOE-2,36.89,61.19,47.11,14.07,6,1,0,Yes
 Zone Information, THERMAL ZONE 51,0.0,0.00,0.00,4.00,1.28,7.65,6.00,1,1,1,0.00,3.00,0.00,15.30,4.00,8.00,4.00,147.56,TARP,DOE-2,36.89,61.19,47.11,14.07,6,1,0,Yes
 Zone Information, THERMAL ZONE 1,0.0,3.00,12.30,84.00,7.65,14.02,86.00,1,1,1,0.00,15.30,12.30,15.30,84.00,88.00,4.00,147.56,TARP,DOE-2,36.89,61.19,47.11,14.07,6,1,0,Yes
 Zone Information, THERMAL ZONE 26,0.0,3.00,3.00,48.00,7.65,7.65,50.00,1,1,1,3.00,12.30,3.00,12.30,48.00,52.00,4.00,345.74,TARP,DOE-2,86.44,0.00,0.00,0.00,6,0,0,Yes
 Zone Information, THERMAL ZONE 30,0.0,3.00,12.30,88.00,7.65,14.02,90.00,1,1,1,0.00,15.30,12.30,15.30,88.00,92.00,4.00,147.56,TARP,DOE-2,36.89,61.19,47.11,14.07,6,1,0,Yes
 Zone Information, THERMAL ZONE 19,0.0,0.00,0.00,16.00,7.65,1.28,18.00,1,1,1,0.00,15.30,0.00,3.00,16.00,20.00,4.00,147.56,TARP,DOE-2,36.89,61.19,47.11,14.07,6,1,0,Yes
 Zone Information, THERMAL ZONE 106,0.0,0.00,0.00,80.00,1.28,7.65,82.00,1,1,1,0.00,3.00,0.00,15.30,80.00,84.00,4.00,147.56,TARP,DOE-2,36.89,61.19,47.11,14.07,6,1,0,Yes
 Zone Information, THERMAL ZONE 88,0.0,0.00,0.00,76.00,1.28,7.65,78.00,1,1,1,0.00,3.00,0.00,15.30,76.00,80.00,4.00,147.56,TARP,DOE-2,36.89,61.19,47.11,14.07,6,1,0,Yes
 Zone Information, THERMAL ZONE 28,0.0,0.00,0.00,24.00,7.65,1.28,26.00,1,1,1,0.00,15.30,0.00,3.00,24.00,28.00,4.00,147.56,TARP,DOE-2,36.89,61.19,47.11,14.07,6,1,0,Yes
 Zone Information, THERMAL ZONE 90,0.0,3.00,3.00,60.00,7.65,7.65,62.00,1,1,1,3.00,12.30,3.00,12.30,60.00,64.00,4.00,345.74,TARP,DOE-2,86.44,0.00,0.00,0.00,6,0,0,Yes
 Zone Information, THERMAL ZONE 101,0.0,0.00,0.00,12.00,7.65,1.28,14.00,1,1,1,0.00,15.30,0.00,3.00,12.00,16.00,4.00,147.56,TARP,DOE-2,36.89,61.19,47.11,14.07,6,1,0,Yes
 Zone Information, THERMAL ZONE 23,0.0,3.00,12.30,4.00,7.65,14.02,6.00,1,1,1,0.00,15.30,12.30,15.30,4.00,8.00,4.00,147.56,TARP,DOE-2,36.89,61.19,47.11,14.07,6,1,0,Yes
 Zone Information, THERMAL ZONE 48,0.0,12.30,3.00,44.00,14.02,7.65,46.00,1,1,1,12.30,15.30,0.00,15.30,44.00,48.00,4.00,147.56,TARP,DOE-2,36.89,61.19,47.11,14.07,6,1,0,Yes
 Zone Information, THERMAL ZONE 52,0.0,0.00,0.00,20.00,7.65,1.28,22.00,1,1,1,0.00,15.30,0.00,3.00,20.00,24.00,4.00,147.56,TARP,DOE-2,36.89,61.19,47.11,14.07,6,1,0,Yes
 Zone Information, THERMAL ZONE 113,0.0,0.00,0.00,32.00,7.65,1.28,34.00,1,1,1,0.00,15.30,0.00,3.00,32.00,36.00,4.00,147.56,TARP,DOE-2,36.89,61.19,47.11,14.07,6,1,0,Yes
 Zone Information, THERMAL ZONE 31,0.0,12.30,3.00,24.00,14.02,7.65,26.00,1,1,1,12.30,15.30,0.00,15.30,24.00,28.00,4.00,147.56,TARP,DOE-2,36.89,61.19,47.11,14.07,6,1,0,Yes
 Zone Information, THERMAL ZONE 34,0.0,3.00,12.30,40.00,7.65,14.02,42.00,1,1,1,0.00,15.30,12.30,15.30,40.00,44.00,4.00,147.56,TARP,DOE-2,36.89,61.19,47.11,14.07,6,1,0,Yes
 Zone Information, THERMAL ZONE 53,0.0,0.00,0.00,24.00,1.28,7.65,26.00,1,1,1,0.00,3.00,0.00,15.30,24.00,28.00,4.00,147.56,TARP,DOE-2,36.89,61.19,47.11,14.07,6,1,0,Yes
 Zone Information, THERMAL ZONE 36,0.0,0.00,0.00,72.00,7.65,1.28,74.00,1,1,1,0.00,15.30,0.00,3.00,72.00,76.00,4.00,147.56,TARP,DOE-2,36.89,61.19,47.11,14.07,6,1,0,Yes
 Zone Information, THERMAL ZONE 108,0.0,12.30,3.00,64.00,14.02,7.65,66.00,1,1,1,12.30,15.30,0.00,15.30,64.00,68.00,4.00,147.56,TARP,DOE-2,36.89,61.19,47.11,14.07,6,1,0,Yes
 Zone Information, THERMAL ZONE 56,0.0,12.30,3.00,56.00,14.02,7.65,58.00,1,1,1,12.30,15.30,0.00,15.30,56.00,60.00,4.00,147.56,TARP,DOE-2,36.89,61.19,47.11,14.07,6,1,0,Yes
 Zone Information, THERMAL ZONE 45,0.0,12.30,3.00,72.00,14.02,7.65,74.00,1,1,1,12.30,15.30,0.00,15.30,72.00,76.00,4.00,147.56,TARP,DOE-2,36.89,61.19,47.11,14.07,6,1,0,Yes
 Zone Information, THERMAL ZONE 105,0.0,3.00,3.00,32.00,7.65,7.65,34.00,1,1,1,3.00,12.30,3.00,12.30,32.00,36.00,4.00,345.74,TARP,DOE-2,86.44,0.00,0.00,0.00,6,0,0,Yes
 Zone Information, THERMAL ZONE 62,0.0,3.00,3.00,68.00,7.65,7.65,70.00,1,1,1,3.00,12.30,3.00,12.30,68.00,72.00,4.00,345.74,TARP,DOE-2,86.44,0.00,0.00,0.00,6,0,0,Yes
 Zone Information, THERMAL ZONE 81,0.0,12.30,3.00,12.00,14.02,7.65,14.00,1,1,1,12.30,15.30,0.00,15.30,12.00,16.00,4.00,147.56,TARP,DOE-2,36.89,61.19,47.11,14.07,6,1,0,Yes
 Zone Information, THERMAL ZONE 7,0.0,0.00,0.00,12.00,1.28,7.65,14.00,1,1,1,0.00,3.00,0.00,15.30,12.00,16.00,4.00,147.56,TARP,DOE-2,36.89,61.19,47.11,14.07,6,1,0,Yes
 Zone Information, THERMAL ZONE 3,0.0,3.00,3.00,40.00,7.65,7.65,42.00,1,1,1,3.00,12.30,3.00,12.30,40.00,44.00,4.00,345.74,TARP,DOE-2,86.44,0.00,0.00,0.00,6,0,0,Yes
 Zone Information, THERMAL ZONE 5,0.0,0.00,0.00,40.00,7.65,1.28,42.00,1,1,1,0.00,15.30,0.00,3.00,40.00,44.00,4.00,147.56,TARP,DOE-2,36.89,61.19,47.11,14.07,6,1,0,Yes
 Zone Information, THERMAL ZONE 61,0.0,3.00,3.00,28.00,7.65,7.65,30.00,1,1,1,3.00,12.30,3.00,12.30,28.00,32.00,4.00,345.74,TARP,DOE-2,86.44,0.00,0.00,0.00,6,0,0,Yes
 Zone Information, THERMAL ZONE 11,0.0,3.00,3.00,36.00,7.65,7.65,38.00,1,1,1,3.00,12.30,3.00,12.30,36.00,40.00,4.00,345.74,TARP,DOE-2,86.44,0.00,0.00,0.00,6,0,0,Yes
 Zone Information, THERMAL ZONE 70,0.0,0.00,0.00,72.00,1.28,7.65,74.00,1,1,1,0.00,3.00,0.00,15.30,72.00,76.00,4.00,147.56,TARP,DOE-2,36.89,61.19,47.11,14.07,6,1,0,Yes
 Zone Information, THERMAL ZONE 68,0.0,3.00,3.00,20.00,7.65,7.65,22.00,1,1,1,3.00,12.30,3.00,12.30,20.00,24.00,4.00,345.74,TARP,DOE-2,86.44,0.00,0.00,0.00,6,0,0,Yes
 Zone Information, THERMAL ZONE 87,0.0,3.00,3.00,56.00,7.65,7.65,58.00,1,1,1,3.00,12.30,3.00,12.30,56.00,60.00,4.00,345.74,TARP,DOE-2,86.44,0.00,0.00,0.00,6,0,0,Yes
 Zone Information, THERMAL ZONE 41,0.0,12.30,3.00,68.00,14.02,7.65,70.00,1,1,1,12.30,15.30,0.00,15.30,68.00,72.00,4.00,147.56,TARP,DOE-2,36.89,61.19,47.11,14.07,6,1,0,Yes
 Zone Information, THERMAL ZONE 100,0.0,12.30,3.00,52.00,14.02,7.65,54.00,1,1,1,12.30,15.30,0.00,15.30,52.00,56.00,4.00,147.56,TARP,DOE-2,36.89,61.19,47.11,14.07,6,1,0,Yes
 Zone Information, THERMAL ZONE 96,0.0,0.00,0.00,44.00,1.28,7.65,46.00,1,1,1,0.00,3.00,0.00,15.30,44.00,48.00,4.00,147.56,TARP,DOE-2,36.89,61.19,47.11,14.07,6,1,0,Yes
 Zone Information, THERMAL ZONE 40,0.0,12.30,3.00,32.00,14.02,7.65,34.00,1,1,1,12.30,15.30,0.00,15.30,32.00,36.00,4.00,147.56,TARP,DOE-2,36.89,61.19,47.11,14.07,6,1,0,Yes
 Zone Information, THERMAL ZONE 14,0.0,0.00,0.00,88.00,1.28,7.65,90.00,1,1,1,0.00,3.00,0.00,15.30,88.00,92.00,4.00,147.56,TARP,DOE-2,36.89,61.19,47.11,14.07,6,1,0,Yes
 Zone Information, THERMAL ZONE 29,0.0,3.00,12.30,48.00,7.65,14.02,50.00,1,1,1,0.00,15.30,12.30,15.30,48.00,52.00,4.00,147.56,TARP,DOE-2,36.89,61.19,47.11,14.07,6,1,0,Yes
 Zone Information, THERMAL ZONE 24,0.0,0.00,0.00,36.00,1.28,7.65,38.00,1,1,1,0.00,3.00,0.00,15.30,36.00,40.00,4.00,147.56,TARP,DOE-2,36.89,61.19,47.11,14.07,6,1,0,Yes
 Zone Information, THERMAL ZONE 25,0.0,0.00,0.00,40.00,1.28,7.65,42.00,1,1,1,0.00,3.00,0.00,15.30,40.00,44.00,4.00,147.56,TARP,DOE-2,36.89,61.19,47.11,14.07,6,1,0,Yes
 Zone Information, THERMAL ZONE 85,0.0,3.00,12.30,36.00,7.65,14.02,38.00,1,1,1,0.00,15.30,12.30,15.30,36.00,40.00,4.00,147.56,TARP,DOE-2,36.89,61.19,47.11,14.07,6,1,0,Yes
 Zone Information, THERMAL ZONE 2,0.0,0.00,0.00,44.00,7.65,1.28,46.00,1,1,1,0.00,15.30,0.00,3.00,44.00,48.00,4.00,147.56,TARP,DOE-2,36.89,61.19,47.11,14.07,6,1,0,Yes
 Zone Information, THERMAL ZONE 97,0.0,12.30,3.00,60.00,14.02,7.65,62.00,1,1,1,12.30,15.30,0.00,15.30,60.00,64.00,4.00,147.56,TARP,DOE-2,36.89,61.19,47.11,14.07,6,1,0,Yes
 Zone Information, THERMAL ZONE 27,0.0,0.00,0.00,8.00,7.65,1.28,10.00,1,1,1,0.00,15.30,0.00,3.00,8.00,12.00,4.00,147.56,TARP,DOE-2,36.89,61.19,47.11,14.07,6,1,0,Yes
 Zone Information, THERMAL ZONE 86,0.0,3.00,12.30,20.00,7.65,14.02,22.00,1,1,1,0.00,15.30,12.30,15.30,20.00,24.00,4.00,147.56,TARP,DOE-2,36.89,61.19,47.11,14.07,6,1,0,Yes
 Zone Information, THERMAL ZONE 89,0.0,3.00,12.30,28.00,7.65,14.02,30.00,1,1,1,0.00,15.30,12.30,15.30,28.00,32.00,4.00,147.56,TARP,DOE-2,36.89,61.19,47.11,14.07,6,1,0,Yes
 Zone Information, THERMAL ZONE 111,0.0,3.00,3.00,84.00,7.65,7.65,86.00,1,1,1,3.00,12.30,3.00,12.30,84.00,88.00,4.00,345.74,TARP,DOE-2,86.44,0.00,0.00,0.00,6,0,0,Yes
 Zone Information, THERMAL ZONE 78,0.0,0.00,0.00,84.00,7.65,1.28,86.00,1,1,1,0.00,15.30,0.00,3.00,84.00,88.00,4.00,147.56,TARP,DOE-2,36.89,61.19,47.11,14.07,6,1,0,Yes
 Zone Information, THERMAL ZONE 82,0.0,0.00,0.00,52.00,7.65,1.28,54.00,1,1,1,0.00,15.30,0.00,3.00,52.00,56.00,4.00,147.56,TARP,DOE-2,36.89,61.19,47.11,14.07,6,1,0,Yes
 Zone Information, THERMAL ZONE 21,0.0,0.00,0.00,68.00,7.65,1.28,70.00,1,1,1,0.00,15.30,0.00,3.00,68.00,72.00,4.00,147.56,TARP,DOE-2,36.89,61.19,47.11,14.07,6,1,0,Yes
 Zone Information, THERMAL ZONE 22,0.0,0.00,0.00,56.00,7.65,1.28,58.00,1,1,1,0.00,15.30,0.00,3.00,56.00,60.00,4.00,147.56,TARP,DOE-2,36.89,61.19,47.11,14.07,6,1,0,Yes
 Zone Information, THERMAL ZONE 35,0.0,3.00,12.30,64.00,7.65,14.02,66.00,1,1,1,0.00,15.30,12.30,15.30,64.00,68.00,4.00,147.56,TARP,DOE-2,36.89,61.19,47.11,14.07,6,1,0,Yes
 Zone Information, THERMAL ZONE 94,0.0,0.00,0.00,80.00,7.65,1.28,82.00,1,1,1,0.00,15.30,0.00,3.00,80.00,84.00,4.00,147.56,TARP,DOE-2,36.89,61.19,47.11,14.07,6,1,0,Yes
 Zone Information, THERMAL ZONE 109,0.0,12.30,3.00,84.00,14.02,7.65,86.00,1,1,1,12.30,15.30,0.00,15.30,84.00,88.00,4.00,147.56,TARP,DOE-2,36.89,61.19,47.11,14.07,6,1,0,Yes
 Zone Information, THERMAL ZONE 104,0.0,3.00,3.00,4.00,7.65,7.65,6.00,1,1,1,3.00,12.30,3.00,12.30,4.00,8.00,4.00,345.74,TARP,DOE-2,86.44,0.00,0.00,0.00,6,0,0,Yes
 Zone Information, THERMAL ZONE 112,0.0,0.00,0.00,64.00,1.28,7.65,66.00,1,1,1,0.00,3.00,0.00,15.30,64.00,68.00,4.00,147.56,TARP,DOE-2,36.89,61.19,47.11,14.07,6,1,0,Yes
 Zone Information, THERMAL ZONE 107,0.0,0.00,0.00,36.00,7.65,1.28,38.00,1,1,1,0.00,15.30,0.00,3.00,36.00,40.00,4.00,147.56,TARP,DOE-2,36.89,61.19,47.11,14.07,6,1,0,Yes
 Zone Information, THERMAL ZONE 54,0.0,3.00,12.30,76.00,7.65,14.02,78.00,1,1,1,0.00,15.30,12.30,15.30,76.00,80.00,4.00,147.56,TARP,DOE-2,36.89,61.19,47.11,14.07,6,1,0,Yes
 Zone Information, THERMAL ZONE 99,0.0,3.00,12.30,24.00,7.65,14.02,26.00,1,1,1,0.00,15.30,12.30,15.30,24.00,28.00,4.00,147.56,TARP,DOE-2,36.89,61.19,47.11,14.07,6,1,0,Yes
 Zone Information, THERMAL ZONE 80,0.0,3.00,3.00,80.00,7.65,7.65,82.00,1,1,1,3.00,12.30,3.00,12.30,80.00,84.00,4.00,345.74,TARP,DOE-2,86.44,0.00,0.00,0.00,6,0,0,Yes
 Zone Information, THERMAL ZONE 65,0.0,3.00,12.30,8.00,7.65,14.02,10.00,1,1,1,0.00,15.30,12.30,15.30,8.00,12.00,4.00,147.56,TARP,DOE-2,36.89,61.19,47.11,14.07,6,1,0,Yes
 Zone Information, THERMAL ZONE 91,0.0,3.00,12.30,52.00,7.65,14.02,54.00,1,1,1,0.00,15.30,12.30,15.30,52.00,56.00,4.00,147.56,TARP,DOE-2,36.89,61.19,47.11,14.07,6,1,0,Yes
 Zone Information, THERMAL ZONE 73,0.0,3.00,12.30,72.00,7.65,14.02,74.00,1,1,1,0.00,15.30,12.30,15.30,72.00,76.00,4.00,147.56,TARP,DOE-2,36.89,61.19,47.11,14.07,6,1,0,Yes
 Zone Information, THERMAL ZONE 110,0.0,0.00,0.00,60.00,7.65,1.28,62.00,1,1,1,0.00,15.30,0.00,3.00,60.00,64.00,4.00,147.56,TARP,DOE-2,36.89,61.19,47.11,14.07,6,1,0,Yes
 Zone Information, THERMAL ZONE 114,0.0,3.00,12.30,44.00,7.65,14.02,46.00,1,1,1,0.00,15.30,12.30,15.30,44.00,48.00,4.00,147.56,TARP,DOE-2,36.89,61.19,47.11,14.07,6,1,0,Yes
 Zone Information, THERMAL ZONE 66,0.0,0.00,0.00,48.00,7.65,1.28,50.00,1,1,1,0.00,15.30,0.00,3.00,48.00,52.00,4.00,147.56,TARP,DOE-2,36.89,61.19,47.11,14.07,6,1,0,Yes
 Zone Information, THERMAL ZONE 47,0.0,0.00,0.00,16.00,1.28,7.65,18.00,1,1,1,0.00,3.00,0.00,15.30,16.00,20.00,4.00,147.56,TARP,DOE-2,36.89,61.19,47.11,14.07,6,1,0,Yes
 Zone Information, THERMAL ZONE 20,0.0,0.00,0.00,0.00,7.65,1.28,2.00,1,1,1,0.00,15.30,0.00,3.00,0.00,4.00,4.00,147.56,TARP,DOE-2,36.89,61.19,47.11,14.07,6,1,0,Yes
 Zone Information, THERMAL ZONE 74,0.0,3.00,3.00,44.00,7.65,7.65,46.00,1,1,1,3.00,12.30,3.00,12.30,44.00,48.00,4.00,345.74,TARP,DOE-2,86.44,0.00,0.00,0.00,6,0,0,Yes
 Zone Information, THERMAL ZONE 58,0.0,3.00,3.00,16.00,7.65,7.65,18.00,1,1,1,3.00,12.30,3.00,12.30,16.00,20.00,4.00,345.74,TARP,DOE-2,86.44,0.00,0.00,0.00,6,0,0,Yes
 Zone Information, THERMAL ZONE 12,0.0,3.00,12.30,60.00,7.65,14.02,62.00,1,1,1,0.00,15.30,12.30,15.30,60.00,64.00,4.00,147.56,TARP,DOE-2,36.89,61.19,47.11,14.07,6,1,0,Yes
 Zone Information, THERMAL ZONE 16,0.0,0.00,0.00,4.00,7.65,1.28,6.00,1,1,1,0.00,15.30,0.00,3.00,4.00,8.00,4.00,147.56,TARP,DOE-2,36.89,61.19,47.11,14.07,6,1,0,Yes
 Zone Information, THERMAL ZONE 15,0.0,0.00,0.00,56.00,1.28,7.65,58.00,1,1,1,0.00,3.00,0.00,15.30,56.00,60.00,4.00,147.56,TARP,DOE-2,36.89,61.19,47.11,14.07,6,1,0,Yes
 Zone Information, THERMAL ZONE 115,0.0,0.00,0.00,60.00,1.28,7.65,62.00,1,1,1,0.00,3.00,0.00,15.30,60.00,64.00,4.00,147.56,TARP,DOE-2,36.89,61.19,47.11,14.07,6,1,0,Yes
 Zone Information, THERMAL ZONE 79,0.0,0.00,0.00,28.00,1.28,7.65,30.00,1,1,1,0.00,3.00,0.00,15.30,28.00,32.00,4.00,147.56,TARP,DOE-2,36.89,61.19,47.11,14.07,6,1,0,Yes
 Zone Information, THERMAL ZONE 60,0.0,3.00,3.00,88.00,7.65,7.65,90.00,1,1,1,3.00,12.30,3.00,12.30,88.00,92.00,4.00,345.74,TARP,DOE-2,86.44,0.00,0.00,0.00,6,0,0,Yes
 Zone Information, THERMAL ZONE 63,0.0,0.00,0.00,68.00,1.28,7.65,70.00,1,1,1,0.00,3.00,0.00,15.30,68.00,72.00,4.00,147.56,TARP,DOE-2,36.89,61.19,47.11,14.07,6,1,0,Yes
 Zone Information, THERMAL ZONE 44,0.0,12.30,3.00,36.00,14.02,7.65,38.00,1,1,1,12.30,15.30,0.00,15.30,36.00,40.00,4.00,147.56,TARP,DOE-2,36.89,61.19,47.11,14.07,6,1,0,Yes
 Zone Information, THERMAL ZONE 76,0.0,12.30,3.00,28.00,14.02,7.65,30.00,1,1,1,12.30,15.30,0.00,15.30,28.00,32.00,4.00,147.56,TARP,DOE-2,36.89,61.19,47.11,14.07,6,1,0,Yes
 Zone Information, THERMAL ZONE 4,0.0,12.30,3.00,76.00,14.02,7.65,78.00,1,1,1,12.30,15.30,0.00,15.30,76.00,80.00,4.00,147.56,TARP,DOE-2,36.89,61.19,47.11,14.07,6,1,0,Yes
 Zone Information, THERMAL ZONE 32,0.0,12.30,3.00,80.00,14.02,7.65,82.00,1,1,1,12.30,15.30,0.00,15.30,80.00,84.00,4.00,147.56,TARP,DOE-2,36.89,61.19,47.11,14.07,6,1,0,Yes
! <Zone Internal Gains/Equipment Information - Nominal>,Zone Name, Floor Area {m2},# Occupants,Area per Occupant {m2/person},Occupant per Area {person/m2},Interior Lighting {W/m2},Electric Load {W/m2},Gas Load {W/m2},Other Load {W/m2},Hot Water Eq {W/m2},Steam Equipment {W/m2},Sum Loads per Area {W/m2},Outdoor Controlled Baseboard Heat
 Zone Internal Gains, THERMAL ZONE 43,36.89,0.0,N/A,0.000,0.000,0.000,0.000,0.000,0.000,0.000,0.000,No
 Zone Internal Gains, THERMAL ZONE 72,36.89,0.0,N/A,0.000,0.000,0.000,0.000,0.000,0.000,0.000,0.000,No
 Zone Internal Gains, THERMAL ZONE 49,36.89,0.0,N/A,0.000,0.000,0.000,0.000,0.000,0.000,0.000,0.000,No
 Zone Internal Gains, THERMAL ZONE 38,86.44,0.0,N/A,0.000,0.000,0.000,0.000,0.000,0.000,0.000,0.000,No
 Zone Internal Gains, THERMAL ZONE 37,36.89,0.0,N/A,0.000,0.000,0.000,0.000,0.000,0.000,0.000,0.000,No
 Zone Internal Gains, THERMAL ZONE 83,36.89,0.0,N/A,0.000,0.000,0.000,0.000,0.000,0.000,0.000,0.000,No
 Zone Internal Gains, THERMAL ZONE 95,36.89,0.0,N/A,0.000,0.000,0.000,0.000,0.000,0.000,0.000,0.000,No
 Zone Internal Gains, THERMAL ZONE 9,36.89,0.0,N/A,0.000,0.000,0.000,0.000,0.000,0.000,0.000,0.000,No
 Zone Internal Gains, THERMAL ZONE 17,36.89,0.0,N/A,0.000,0.000,0.000,0.000,0.000,0.000,0.000,0.000,No
 Zone Internal Gains, THERMAL ZONE 67,86.44,0.0,N/A,0.000,0.000,0.000,0.000,0.000,0.000,0.000,0.000,No
 Zone Internal Gains, THERMAL ZONE 50,36.89,0.0,N/A,0.000,0.000,0.000,0.000,0.000,0.000,0.000,0.000,No
 Zone Internal Gains, THERMAL ZONE 18,36.89,0.0,N/A,0.000,0.000,0.000,0.000,0.000,0.000,0.000,0.000,No
 Zone Internal Gains, THERMAL ZONE 6,36.89,0.0,N/A,0.000,0.000,0.000,0.000,0.000,0.000,0.000,0.000,No
 Zone Internal Gains, THERMAL ZONE 39,36.89,0.0,N/A,0.000,0.000,0.000,0.000,0.000,0.000,0.000,0.000,No
 Zone Internal Gains, THERMAL ZONE 33,36.89,0.0,N/A,0.000,0.000,0.000,0.000,0.000,0.000,0.000,0.000,No
 Zone Internal Gains, THERMAL ZONE 13,86.44,0.0,N/A,0.000,0.000,0.000,0.000,0.000,0.000,0.000,0.000,No
 Zone Internal Gains, THERMAL ZONE 84,86.44,0.0,N/A,0.000,0.000,0.000,0.000,0.000,0.000,0.000,0.000,No
 Zone Internal Gains, THERMAL ZONE 71,36.89,0.0,N/A,0.000,0.000,0.000,0.000,0.000,0.000,0.000,0.000,No
 Zone Internal Gains, THERMAL ZONE 103,36.89,0.0,N/A,0.000,0.000,0.000,0.000,0.000,0.000,0.000,0.000,No
 Zone Internal Gains, THERMAL ZONE 75,86.44,0.0,N/A,0.000,0.000,0.000,0.000,0.000,0.000,0.000,0.000,No
 Zone Internal Gains, THERMAL ZONE 77,36.89,0.0,N/A,0.000,0.000,0.000,0.000,0.000,0.000,0.000,0.000,No
 Zone Internal Gains, THERMAL ZONE 92,36.89,0.0,N/A,0.000,0.000,0.000,0.000,0.000,0.000,0.000,0.000,No
 Zone Internal Gains, THERMAL ZONE 42,36.89,0.0,N/A,0.000,0.000,0.000,0.000,0.000,0.000,0.000,0.000,No
 Zone Internal Gains, THERMAL ZONE 102,36.89,0.0,N/A,0.000,0.000,0.000,0.000,0.000,0.000,0.000,0.000,No
 Zone Internal Gains, THERMAL ZONE 8,86.44,0.0,N/A,0.000,0.000,0.000,0.000,0.000,0.000,0.000,0.000,No
 Zone Internal Gains, THERMAL ZONE 55,36.89,0.0,N/A,0.000,0.000,0.000,0.000,0.000,0.000,0.000,0.000,No
 Zone Internal Gains, THERMAL ZONE 46,36.89,0.0,N/A,0.000,0.000,0.000,0.000,0.000,0.000,0.000,0.000,No
 Zone Internal Gains, THERMAL ZONE 64,36.89,0.0,N/A,0.000,0.000,0.000,0.000,0.000,0.000,0.000,0.000,No
 Zone Internal Gains, THERMAL ZONE 69,86.44,0.0,N/A,0.000,0.000,0.000,0.000,0.000,0.000,0.000,0.000,No
 Zone Internal Gains, THERMAL ZONE 10,36.89,0.0,N/A,0.000,0.000,0.000,0.000,0.000,0.000,0.000,0.000,No
 Zone Internal Gains, THERMAL ZONE 59,36.89,0.0,N/A,0.000,0.000,0.000,0.000,0.000,0.000,0.000,0.000,No
 Zone Internal Gains, THERMAL ZONE 93,86.44,0.0,N/A,0.000,0.000,0.000,0.000,0.000,0.000,0.000,0.000,No
 Zone Internal Gains, THERMAL ZONE 98,36.89,0.0,N/A,0.000,0.000,0.000,0.000,0.000,0.000,0.000,0.000,No
 Zone Internal Gains, THERMAL ZONE 57,36.89,0.0,N/A,0.000,0.000,0.000,0.000,0.000,0.000,0.000,0.000,No
 Zone Internal Gains, THERMAL ZONE 51,36.89,0.0,N/A,0.000,0.000,0.000,0.000,0.000,0.000,0.000,0.000,No
 Zone Internal Gains, THERMAL ZONE 1,36.89,0.0,N/A,0.000,0.000,0.000,0.000,0.000,0.000,0.000,0.000,No
 Zone Internal Gains, THERMAL ZONE 26,86.44,0.0,N/A,0.000,0.000,0.000,0.000,0.000,0.000,0.000,0.000,No
 Zone Internal Gains, THERMAL ZONE 30,36.89,0.0,N/A,0.000,0.000,0.000,0.000,0.000,0.000,0.000,0.000,No
 Zone Internal Gains, THERMAL ZONE 19,36.89,0.0,N/A,0.000,0.000,0.000,0.000,0.000,0.000,0.000,0.000,No
 Zone Internal Gains, THERMAL ZONE 106,36.89,0.0,N/A,0.000,0.000,0.000,0.000,0.000,0.000,0.000,0.000,No
 Zone Internal Gains, THERMAL ZONE 88,36.89,0.0,N/A,0.000,0.000,0.000,0.000,0.000,0.000,0.000,0.000,No
 Zone Internal Gains, THERMAL ZONE 28,36.89,0.0,N/A,0.000,0.000,0.000,0.000,0.000,0.000,0.000,0.000,No
 Zone Internal Gains, THERMAL ZONE 90,86.44,0.0,N/A,0.000,0.000,0.000,0.000,0.000,0.000,0.000,0.000,No
 Zone Internal Gains, THERMAL ZONE 101,36.89,0.0,N/A,0.000,0.000,0.000,0.000,0.000,0.000,0.000,0.000,No
 Zone Internal Gains, THERMAL ZONE 23,36.89,0.0,N/A,0.000,0.000,0.000,0.000,0.000,0.000,0.000,0.000,No
 Zone Internal Gains, THERMAL ZONE 48,36.89,0.0,N/A,0.000,0.000,0.000,0.000,0.000,0.000,0.000,0.000,No
 Zone Internal Gains, THERMAL ZONE 52,36.89,0.0,N/A,0.000,0.000,0.000,0.000,0.000,0.000,0.000,0.000,No
 Zone Internal Gains, THERMAL ZONE 113,36.89,0.0,N/A,0.000,0.000,0.000,0.000,0.000,0.000,0.000,0.000,No
 Zone Internal Gains, THERMAL ZONE 31,36.89,0.0,N/A,0.000,0.000,0.000,0.000,0.000,0.000,0.000,0.000,No
 Zone Internal Gains, THERMAL ZONE 34,36.89,0.0,N/A,0.000,0.000,0.000,0.000,0.000,0.000,0.000,0.000,No
 Zone Internal Gains, THERMAL ZONE 53,36.89,0.0,N/A,0.000,0.000,0.000,0.000,0.000,0.000,0.000,0.000,No
 Zone Internal Gains, THERMAL ZONE 36,36.89,0.0,N/A,0.000,0.000,0.000,0.000,0.000,0.000,0.000,0.000,No
 Zone Internal Gains, THERMAL ZONE 108,36.89,0.0,N/A,0.000,0.000,0.000,0.000,0.000,0.000,0.000,0.000,No
 Zone Internal Gains, THERMAL ZONE 56,36.89,0.0,N/A,0.000,0.000,0.000,0.000,0.000,0.000,0.000,0.000,No
 Zone Internal Gains, THERMAL ZONE 45,36.89,0.0,N/A,0.000,0.000,0.000,0.000,0.000,0.000,0.000,0.000,No
 Zone Internal Gains, THERMAL ZONE 105,86.44,0.0,N/A,0.000,0.000,0.000,0.000,0.000,0.000,0.000,0.000,No
 Zone Internal Gains, THERMAL ZONE 62,86.44,0.0,N/A,0.000,0.000,0.000,0.000,0.000,0.000,0.000,0.000,No
 Zone Internal Gains, THERMAL ZONE 81,36.89,0.0,N/A,0.000,0.000,0.000,0.000,0.000,0.000,0.000,0.000,No
 Zone Internal Gains, THERMAL ZONE 7,36.89,0.0,N/A,0.000,0.000,0.000,0.000,0.000,0.000,0.000,0.000,No
 Zone Internal Gains, THERMAL ZONE 3,86.44,0.0,N/A,0.000,0.000,0.000,0.000,0.000,0.000,0.000,0.000,No
 Zone Internal Gains, THERMAL ZONE 5,36.89,0.0,N/A,0.000,0.000,0.000,0.000,0.000,0.000,0.000,0.000,No
 Zone Internal Gains, THERMAL ZONE 61,86.44,0.0,N/A,0.000,0.000,0.000,0.000,0.000,0.000,0.000,0.000,No
 Zone Internal Gains, THERMAL ZONE 11,86.44,0.0,N/A,0.000,0.000,0.000,0.000,0.000,0.000,0.000,0.000,No
 Zone Internal Gains, THERMAL ZONE 70,36.89,0.0,N/A,0.000,0.000,0.000,0.000,0.000,0.000,0.000,0.000,No
 Zone Internal Gains, THERMAL ZONE 68,86.44,0.0,N/A,0.000,0.000,0.000,0.000,0.000,0.000,0.000,0.000,No
 Zone Internal Gains, THERMAL ZONE 87,86.44,0.0,N/A,0.000,0.000,0.000,0.000,0.000,0.000,0.000,0.000,No
 Zone Internal Gains, THERMAL ZONE 41,36.89,0.0,N/A,0.000,0.000,0.000,0.000,0.000,0.000,0.000,0.000,No
 Zone Internal Gains, THERMAL ZONE 100,36.89,0.0,N/A,0.000,0.000,0.000,0.000,0.000,0.000,0.000,0.000,No
 Zone Internal Gains, THERMAL ZONE 96,36.89,0.0,N/A,0.000,0.000,0.000,0.000,0.000,0.000,0.000,0.000,No
 Zone Internal Gains, THERMAL ZONE 40,36.89,0.0,N/A,0.000,0.000,0.000,0.000,0.000,0.000,0.000,0.000,No
 Zone Internal Gains, THERMAL ZONE 14,36.89,0.0,N/A,0.000,0.000,0.000,0.000,0.000,0.000,0.000,0.000,No
 Zone Internal Gains, THERMAL ZONE 29,36.89,0.0,N/A,0.000,0.000,0.000,0.000,0.000,0.000,0.000,0.000,No
 Zone Internal Gains, THERMAL ZONE 24,36.89,0.0,N/A,0.000,0.000,0.000,0.000,0.000,0.000,0.000,0.000,No
 Zone Internal Gains, THERMAL ZONE 25,36.89,0.0,N/A,0.000,0.000,0.000,0.000,0.000,0.000,0.000,0.000,No
 Zone Internal Gains, THERMAL ZONE 85,36.89,0.0,N/A,0.000,0.000,0.000,0.000,0.000,0.000,0.000,0.000,No
 Zone Internal Gains, THERMAL ZONE 2,36.89,0.0,N/A,0.000,0.000,0.000,0.000,0.000,0.000,0.000,0.000,No
 Zone Internal Gains, THERMAL ZONE 97,36.89,0.0,N/A,0.000,0.000,0.000,0.000,0.000,0.000,0.000,0.000,No
 Zone Internal Gains, THERMAL ZONE 27,36.89,0.0,N/A,0.000,0.000,0.000,0.000,0.000,0.000,0.000,0.000,No
 Zone Internal Gains, THERMAL ZONE 86,36.89,0.0,N/A,0.000,0.000,0.000,0.000,0.000,0.000,0.000,0.000,No
 Zone Internal Gains, THERMAL ZONE 89,36.89,0.0,N/A,0.000,0.000,0.000,0.000,0.000,0.000,0.000,0.000,No
 Zone Internal Gains, THERMAL ZONE 111,86.44,0.0,N/A,0.000,0.000,0.000,0.000,0.000,0.000,0.000,0.000,No
 Zone Internal Gains, THERMAL ZONE 78,36.89,0.0,N/A,0.000,0.000,0.000,0.000,0.000,0.000,0.000,0.000,No
 Zone Internal Gains, THERMAL ZONE 82,36.89,0.0,N/A,0.000,0.000,0.000,0.000,0.000,0.000,0.000,0.000,No
 Zone Internal Gains, THERMAL ZONE 21,36.89,0.0,N/A,0.000,0.000,0.000,0.000,0.000,0.000,0.000,0.000,No
 Zone Internal Gains, THERMAL ZONE 22,36.89,0.0,N/A,0.000,0.000,0.000,0.000,0.000,0.000,0.000,0.000,No
 Zone Internal Gains, THERMAL ZONE 35,36.89,0.0,N/A,0.000,0.000,0.000,0.000,0.000,0.000,0.000,0.000,No
 Zone Internal Gains, THERMAL ZONE 94,36.89,0.0,N/A,0.000,0.000,0.000,0.000,0.000,0.000,0.000,0.000,No
 Zone Internal Gains, THERMAL ZONE 109,36.89,0.0,N/A,0.000,0.000,0.000,0.000,0.000,0.000,0.000,0.000,No
 Zone Internal Gains, THERMAL ZONE 104,86.44,0.0,N/A,0.000,0.000,0.000,0.000,0.000,0.000,0.000,0.000,No
 Zone Internal Gains, THERMAL ZONE 112,36.89,0.0,N/A,0.000,0.000,0.000,0.000,0.000,0.000,0.000,0.000,No
 Zone Internal Gains, THERMAL ZONE 107,36.89,0.0,N/A,0.000,0.000,0.000,0.000,0.000,0.000,0.000,0.000,No
 Zone Internal Gains, THERMAL ZONE 54,36.89,0.0,N/A,0.000,0.000,0.000,0.000,0.000,0.000,0.000,0.000,No
 Zone Internal Gains, THERMAL ZONE 99,36.89,0.0,N/A,0.000,0.000,0.000,0.000,0.000,0.000,0.000,0.000,No
 Zone Internal Gains, THERMAL ZONE 80,86.44,0.0,N/A,0.000,0.000,0.000,0.000,0.000,0.000,0.000,0.000,No
 Zone Internal Gains, THERMAL ZONE 65,36.89,0.0,N/A,0.000,0.000,0.000,0.000,0.000,0.000,0.000,0.000,No
 Zone Internal Gains, THERMAL ZONE 91,36.89,0.0,N/A,0.000,0.000,0.000,0.000,0.000,0.000,0.000,0.000,No
 Zone Internal Gains, THERMAL ZONE 73,36.89,0.0,N/A,0.000,0.000,0.000,0.000,0.000,0.000,0.000,0.000,No
 Zone Internal Gains, THERMAL ZONE 110,36.89,0.0,N/A,0.000,0.000,0.000,0.000,0.000,0.000,0.000,0.000,No
 Zone Internal Gains, THERMAL ZONE 114,36.89,0.0,N/A,0.000,0.000,0.000,0.000,0.000,0.000,0.000,0.000,No
 Zone Internal Gains, THERMAL ZONE 66,36.89,0.0,N/A,0.000,0.000,0.000,0.000,0.000,0.000,0.000,0.000,No
 Zone Internal Gains, THERMAL ZONE 47,36.89,0.0,N/A,0.000,0.000,0.000,0.000,0.000,0.000,0.000,0.000,No
 Zone Internal Gains, THERMAL ZONE 20,36.89,0.0,N/A,0.000,0.000,0.000,0.000,0.000,0.000,0.000,0.000,No
 Zone Internal Gains, THERMAL ZONE 74,86.44,0.0,N/A,0.000,0.000,0.000,0.000,0.000,0.000,0.000,0.000,No
 Zone Internal Gains, THERMAL ZONE 58,86.44,0.0,N/A,0.000,0.000,0.000,0.000,0.000,0.000,0.000,0.000,No
 Zone Internal Gains, THERMAL ZONE 12,36.89,0.0,N/A,0.000,0.000,0.000,0.000,0.000,0.000,0.000,0.000,No
 Zone Internal Gains, THERMAL ZONE 16,36.89,0.0,N/A,0.000,0.000,0.000,0.000,0.000,0.000,0.000,0.000,No
 Zone Internal Gains, THERMAL ZONE 15,36.89,0.0,N/A,0.000,0.000,0.000,0.000,0.000,0.000,0.000,0.000,No
 Zone Internal Gains, THERMAL ZONE 115,36.89,0.0,N/A,0.000,0.000,0.000,0.000,0.000,0.000,0.000,0.000,No
 Zone Internal Gains, THERMAL ZONE 79,36.89,0.0,N/A,0.000,0.000,0.000,0.000,0.000,0.000,0.000,0.000,No
 Zone Internal Gains, THERMAL ZONE 60,86.44,0.0,N/A,0.000,0.000,0.000,0.000,0.000,0.000,0.000,0.000,No
 Zone Internal Gains, THERMAL ZONE 63,36.89,0.0,N/A,0.000,0.000,0.000,0.000,0.000,0.000,0.000,0.000,No
 Zone Internal Gains, THERMAL ZONE 44,36.89,0.0,N/A,0.000,0.000,0.000,0.000,0.000,0.000,0.000,0.000,No
 Zone Internal Gains, THERMAL ZONE 76,36.89,0.0,N/A,0.000,0.000,0.000,0.000,0.000,0.000,0.000,0.000,No
 Zone Internal Gains, THERMAL ZONE 4,36.89,0.0,N/A,0.000,0.000,0.000,0.000,0.000,0.000,0.000,0.000,No
 Zone Internal Gains, THERMAL ZONE 32,36.89,0.0,N/A,0.000,0.000,0.000,0.000,0.000,0.000,0.000,0.000,No
! <Shadowing/Sun Position Calculations> [Annual Simulations], Value {days}, Allowable Number Figures in Shadow Overlap {}, Polygon Clipping Algorithm, Sky Diffuse Modeling Algorithm
Shadowing/Sun Position Calculations,20,15000,SutherlandHodgman,SimpleSkyDiffuseModeling
! <RoomAir Model>, Zone Name, Mixing/Mundt/UCSDDV/UCSDCV/UCSDUFI/UCSDUFE/User Defined
RoomAir Model,THERMAL ZONE 43,Mixing/Well-Stirred
RoomAir Model,THERMAL ZONE 72,Mixing/Well-Stirred
RoomAir Model,THERMAL ZONE 49,Mixing/Well-Stirred
RoomAir Model,THERMAL ZONE 38,Mixing/Well-Stirred
RoomAir Model,THERMAL ZONE 37,Mixing/Well-Stirred
RoomAir Model,THERMAL ZONE 83,Mixing/Well-Stirred
RoomAir Model,THERMAL ZONE 95,Mixing/Well-Stirred
RoomAir Model,THERMAL ZONE 9,Mixing/Well-Stirred
RoomAir Model,THERMAL ZONE 17,Mixing/Well-Stirred
RoomAir Model,THERMAL ZONE 67,Mixing/Well-Stirred
RoomAir Model,THERMAL ZONE 50,Mixing/Well-Stirred
RoomAir Model,THERMAL ZONE 18,Mixing/Well-Stirred
RoomAir Model,THERMAL ZONE 6,Mixing/Well-Stirred
RoomAir Model,THERMAL ZONE 39,Mixing/Well-Stirred
RoomAir Model,THERMAL ZONE 33,Mixing/Well-Stirred
RoomAir Model,THERMAL ZONE 13,Mixing/Well-Stirred
RoomAir Model,THERMAL ZONE 84,Mixing/Well-Stirred
RoomAir Model,THERMAL ZONE 71,Mixing/Well-Stirred
RoomAir Model,THERMAL ZONE 103,Mixing/Well-Stirred
RoomAir Model,THERMAL ZONE 75,Mixing/Well-Stirred
RoomAir Model,THERMAL ZONE 77,Mixing/Well-Stirred
RoomAir Model,THERMAL ZONE 92,Mixing/Well-Stirred
RoomAir Model,THERMAL ZONE 42,Mixing/Well-Stirred
RoomAir Model,THERMAL ZONE 102,Mixing/Well-Stirred
RoomAir Model,THERMAL ZONE 8,Mixing/Well-Stirred
RoomAir Model,THERMAL ZONE 55,Mixing/Well-Stirred
RoomAir Model,THERMAL ZONE 46,Mixing/Well-Stirred
RoomAir Model,THERMAL ZONE 64,Mixing/Well-Stirred
RoomAir Model,THERMAL ZONE 69,Mixing/Well-Stirred
RoomAir Model,THERMAL ZONE 10,Mixing/Well-Stirred
RoomAir Model,THERMAL ZONE 59,Mixing/Well-Stirred
RoomAir Model,THERMAL ZONE 93,Mixing/Well-Stirred
RoomAir Model,THERMAL ZONE 98,Mixing/Well-Stirred
RoomAir Model,THERMAL ZONE 57,Mixing/Well-Stirred
RoomAir Model,THERMAL ZONE 51,Mixing/Well-Stirred
RoomAir Model,THERMAL ZONE 1,Mixing/Well-Stirred
RoomAir Model,THERMAL ZONE 26,Mixing/Well-Stirred
RoomAir Model,THERMAL ZONE 30,Mixing/Well-Stirred
RoomAir Model,THERMAL ZONE 19,Mixing/Well-Stirred
RoomAir Model,THERMAL ZONE 106,Mixing/Well-Stirred
RoomAir Model,THERMAL ZONE 88,Mixing/Well-Stirred
RoomAir Model,THERMAL ZONE 28,Mixing/Well-Stirred
RoomAir Model,THERMAL ZONE 90,Mixing/Well-Stirred
RoomAir Model,THERMAL ZONE 101,Mixing/Well-Stirred
RoomAir Model,THERMAL ZONE 23,Mixing/Well-Stirred
RoomAir Model,THERMAL ZONE 48,Mixing/Well-Stirred
RoomAir Model,THERMAL ZONE 52,Mixing/Well-Stirred
RoomAir Model,THERMAL ZONE 113,Mixing/Well-Stirred
RoomAir Model,THERMAL ZONE 31,Mixing/Well-Stirred
RoomAir Model,THERMAL ZONE 34,Mixing/Well-Stirred
RoomAir Model,THERMAL ZONE 53,Mixing/Well-Stirred
RoomAir Model,THERMAL ZONE 36,Mixing/Well-Stirred
RoomAir Model,THERMAL ZONE 108,Mixing/Well-Stirred
RoomAir Model,THERMAL ZONE 56,Mixing/Well-Stirred
RoomAir Model,THERMAL ZONE 45,Mixing/Well-Stirred
RoomAir Model,THERMAL ZONE 105,Mixing/Well-Stirred
RoomAir Model,THERMAL ZONE 62,Mixing/Well-Stirred
RoomAir Model,THERMAL ZONE 81,Mixing/Well-Stirred
RoomAir Model,THERMAL ZONE 7,Mixing/Well-Stirred
RoomAir Model,THERMAL ZONE 3,Mixing/Well-Stirred
RoomAir Model,THERMAL ZONE 5,Mixing/Well-Stirred
RoomAir Model,THERMAL ZONE 61,Mixing/Well-Stirred
RoomAir Model,THERMAL ZONE 11,Mixing/Well-Stirred
RoomAir Model,THERMAL ZONE 70,Mixing/Well-Stirred
RoomAir Model,THERMAL ZONE 68,Mixing/Well-Stirred
RoomAir Model,THERMAL ZONE 87,Mixing/Well-Stirred
RoomAir Model,THERMAL ZONE 41,Mixing/Well-Stirred
RoomAir Model,THERMAL ZONE 100,Mixing/Well-Stirred
RoomAir Model,THERMAL ZONE 96,Mixing/Well-Stirred
RoomAir Model,THERMAL ZONE 40,Mixing/Well-Stirred
RoomAir Model,THERMAL ZONE 14,Mixing/Well-Stirred
RoomAir Model,THERMAL ZONE 29,Mixing/Well-Stirred
RoomAir Model,THERMAL ZONE 24,Mixing/Well-Stirred
RoomAir Model,THERMAL ZONE 25,Mixing/Well-Stirred
RoomAir Model,THERMAL ZONE 85,Mixing/Well-Stirred
RoomAir Model,THERMAL ZONE 2,Mixing/Well-Stirred
RoomAir Model,THERMAL ZONE 97,Mixing/Well-Stirred
RoomAir Model,THERMAL ZONE 27,Mixing/Well-Stirred
RoomAir Model,THERMAL ZONE 86,Mixing/Well-Stirred
RoomAir Model,THERMAL ZONE 89,Mixing/Well-Stirred
RoomAir Model,THERMAL ZONE 111,Mixing/Well-Stirred
RoomAir Model,THERMAL ZONE 78,Mixing/Well-Stirred
RoomAir Model,THERMAL ZONE 82,Mixing/Well-Stirred
RoomAir Model,THERMAL ZONE 21,Mixing/Well-Stirred
RoomAir Model,THERMAL ZONE 22,Mixing/Well-Stirred
RoomAir Model,THERMAL ZONE 35,Mixing/Well-Stirred
RoomAir Model,THERMAL ZONE 94,Mixing/Well-Stirred
RoomAir Model,THERMAL ZONE 109,Mixing/Well-Stirred
RoomAir Model,THERMAL ZONE 104,Mixing/Well-Stirred
RoomAir Model,THERMAL ZONE 112,Mixing/Well-Stirred
RoomAir Model,THERMAL ZONE 107,Mixing/Well-Stirred
RoomAir Model,THERMAL ZONE 54,Mixing/Well-Stirred
RoomAir Model,THERMAL ZONE 99,Mixing/Well-Stirred
RoomAir Model,THERMAL ZONE 80,Mixing/Well-Stirred
RoomAir Model,THERMAL ZONE 65,Mixing/Well-Stirred
RoomAir Model,THERMAL ZONE 91,Mixing/Well-Stirred
RoomAir Model,THERMAL ZONE 73,Mixing/Well-Stirred
RoomAir Model,THERMAL ZONE 110,Mixing/Well-Stirred
RoomAir Model,THERMAL ZONE 114,Mixing/Well-Stirred
RoomAir Model,THERMAL ZONE 66,Mixing/Well-Stirred
RoomAir Model,THERMAL ZONE 47,Mixing/Well-Stirred
RoomAir Model,THERMAL ZONE 20,Mixing/Well-Stirred
RoomAir Model,THERMAL ZONE 74,Mixing/Well-Stirred
RoomAir Model,THERMAL ZONE 58,Mixing/Well-Stirred
RoomAir Model,THERMAL ZONE 12,Mixing/Well-Stirred
RoomAir Model,THERMAL ZONE 16,Mixing/Well-Stirred
RoomAir Model,THERMAL ZONE 15,Mixing/Well-Stirred
RoomAir Model,THERMAL ZONE 115,Mixing/Well-Stirred
RoomAir Model,THERMAL ZONE 79,Mixing/Well-Stirred
RoomAir Model,THERMAL ZONE 60,Mixing/Well-Stirred
RoomAir Model,THERMAL ZONE 63,Mixing/Well-Stirred
RoomAir Model,THERMAL ZONE 44,Mixing/Well-Stirred
RoomAir Model,THERMAL ZONE 76,Mixing/Well-Stirred
RoomAir Model,THERMAL ZONE 4,Mixing/Well-Stirred
RoomAir Model,THERMAL ZONE 32,Mixing/Well-Stirred
! <AirflowNetwork Model:Control>, No Multizone or Distribution/Multizone with Distribution/Multizone without Distribution/Multizone with Distribution only during Fan Operation
AirflowNetwork Model:Control,NoMultizoneOrDistribution
! <Zone Volume Capacitance Multiplier>, Sensible Heat Capacity Multiplier, Moisture Capacity Multiplier, Carbon Dioxide Capacity Multiplier, Generic Contaminant Capacity Multiplier
Zone Volume Capacitance Multiplier,   1.000 ,   1.000,   1.000,   1.000
! <Load Timesteps in Zone Design Calculation Averaging Window>, Value
 Load Timesteps in Zone Design Calculation Averaging Window,    4
! <Heating Sizing Factor Information>, Sizing Factor ID, Value
 Heating Sizing Factor Information, Global,   1.2500    
 Heating Sizing Factor Information, Zone THERMAL ZONE 43,   1.2500    
 Heating Sizing Factor Information, Zone THERMAL ZONE 72,   1.2500    
 Heating Sizing Factor Information, Zone THERMAL ZONE 49,   1.2500    
 Heating Sizing Factor Information, Zone THERMAL ZONE 38,   1.2500    
 Heating Sizing Factor Information, Zone THERMAL ZONE 37,   1.2500    
 Heating Sizing Factor Information, Zone THERMAL ZONE 83,   1.2500    
 Heating Sizing Factor Information, Zone THERMAL ZONE 95,   1.2500    
 Heating Sizing Factor Information, Zone THERMAL ZONE 9,   1.2500    
 Heating Sizing Factor Information, Zone THERMAL ZONE 17,   1.2500    
 Heating Sizing Factor Information, Zone THERMAL ZONE 67,   1.2500    
 Heating Sizing Factor Information, Zone THERMAL ZONE 50,   1.2500    
 Heating Sizing Factor Information, Zone THERMAL ZONE 18,   1.2500    
 Heating Sizing Factor Information, Zone THERMAL ZONE 6,   1.2500    
 Heating Sizing Factor Information, Zone THERMAL ZONE 39,   1.2500    
 Heating Sizing Factor Information, Zone THERMAL ZONE 33,   1.2500    
 Heating Sizing Factor Information, Zone THERMAL ZONE 13,   1.2500    
 Heating Sizing Factor Information, Zone THERMAL ZONE 84,   1.2500    
 Heating Sizing Factor Information, Zone THERMAL ZONE 71,   1.2500    
 Heating Sizing Factor Information, Zone THERMAL ZONE 103,   1.2500    
 Heating Sizing Factor Information, Zone THERMAL ZONE 75,   1.2500    
 Heating Sizing Factor Information, Zone THERMAL ZONE 77,   1.2500    
 Heating Sizing Factor Information, Zone THERMAL ZONE 92,   1.2500    
 Heating Sizing Factor Information, Zone THERMAL ZONE 42,   1.2500    
 Heating Sizing Factor Information, Zone THERMAL ZONE 102,   1.2500    
 Heating Sizing Factor Information, Zone THERMAL ZONE 8,   1.2500    
 Heating Sizing Factor Information, Zone THERMAL ZONE 55,   1.2500    
 Heating Sizing Factor Information, Zone THERMAL ZONE 46,   1.2500    
 Heating Sizing Factor Information, Zone THERMAL ZONE 64,   1.2500    
 Heating Sizing Factor Information, Zone THERMAL ZONE 69,   1.2500    
 Heating Sizing Factor Information, Zone THERMAL ZONE 10,   1.2500    
 Heating Sizing Factor Information, Zone THERMAL ZONE 59,   1.2500    
 Heating Sizing Factor Information, Zone THERMAL ZONE 93,   1.2500    
 Heating Sizing Factor Information, Zone THERMAL ZONE 98,   1.2500    
 Heating Sizing Factor Information, Zone THERMAL ZONE 57,   1.2500    
 Heating Sizing Factor Information, Zone THERMAL ZONE 51,   1.2500    
 Heating Sizing Factor Information, Zone THERMAL ZONE 1,   1.2500    
 Heating Sizing Factor Information, Zone THERMAL ZONE 26,   1.2500    
 Heating Sizing Factor Information, Zone THERMAL ZONE 30,   1.2500    
 Heating Sizing Factor Information, Zone THERMAL ZONE 19,   1.2500    
 Heating Sizing Factor Information, Zone THERMAL ZONE 106,   1.2500    
 Heating Sizing Factor Information, Zone THERMAL ZONE 88,   1.2500    
 Heating Sizing Factor Information, Zone THERMAL ZONE 28,   1.2500    
 Heating Sizing Factor Information, Zone THERMAL ZONE 90,   1.2500    
 Heating Sizing Factor Information, Zone THERMAL ZONE 101,   1.2500    
 Heating Sizing Factor Information, Zone THERMAL ZONE 23,   1.2500    
 Heating Sizing Factor Information, Zone THERMAL ZONE 48,   1.2500    
 Heating Sizing Factor Information, Zone THERMAL ZONE 52,   1.2500    
 Heating Sizing Factor Information, Zone THERMAL ZONE 113,   1.2500    
 Heating Sizing Factor Information, Zone THERMAL ZONE 31,   1.2500    
 Heating Sizing Factor Information, Zone THERMAL ZONE 34,   1.2500    
 Heating Sizing Factor Information, Zone THERMAL ZONE 53,   1.2500    
 Heating Sizing Factor Information, Zone THERMAL ZONE 36,   1.2500    
 Heating Sizing Factor Information, Zone THERMAL ZONE 108,   1.2500    
 Heating Sizing Factor Information, Zone THERMAL ZONE 56,   1.2500    
 Heating Sizing Factor Information, Zone THERMAL ZONE 45,   1.2500    
 Heating Sizing Factor Information, Zone THERMAL ZONE 105,   1.2500    
 Heating Sizing Factor Information, Zone THERMAL ZONE 62,   1.2500    
 Heating Sizing Factor Information, Zone THERMAL ZONE 81,   1.2500    
 Heating Sizing Factor Information, Zone THERMAL ZONE 7,   1.2500    
 Heating Sizing Factor Information, Zone THERMAL ZONE 3,   1.2500    
 Heating Sizing Factor Information, Zone THERMAL ZONE 5,   1.2500    
 Heating Sizing Factor Information, Zone THERMAL ZONE 61,   1.2500    
 Heating Sizing Factor Information, Zone THERMAL ZONE 11,   1.2500    
 Heating Sizing Factor Information, Zone THERMAL ZONE 70,   1.2500    
 Heating Sizing Factor Information, Zone THERMAL ZONE 68,   1.2500    
 Heating Sizing Factor Information, Zone THERMAL ZONE 87,   1.2500    
 Heating Sizing Factor Information, Zone THERMAL ZONE 41,   1.2500    
 Heating Sizing Factor Information, Zone THERMAL ZONE 100,   1.2500    
 Heating Sizing Factor Information, Zone THERMAL ZONE 96,   1.2500    
 Heating Sizing Factor Information, Zone THERMAL ZONE 40,   1.2500    
 Heating Sizing Factor Information, Zone THERMAL ZONE 14,   1.2500    
 Heating Sizing Factor Information, Zone THERMAL ZONE 29,   1.2500    
 Heating Sizing Factor Information, Zone THERMAL ZONE 24,   1.2500    
 Heating Sizing Factor Information, Zone THERMAL ZONE 25,   1.2500    
 Heating Sizing Factor Information, Zone THERMAL ZONE 85,   1.2500    
 Heating Sizing Factor Information, Zone THERMAL ZONE 2,   1.2500    
 Heating Sizing Factor Information, Zone THERMAL ZONE 97,   1.2500    
 Heating Sizing Factor Information, Zone THERMAL ZONE 27,   1.2500    
 Heating Sizing Factor Information, Zone THERMAL ZONE 86,   1.2500    
 Heating Sizing Factor Information, Zone THERMAL ZONE 89,   1.2500    
 Heating Sizing Factor Information, Zone THERMAL ZONE 111,   1.2500    
 Heating Sizing Factor Information, Zone THERMAL ZONE 78,   1.2500    
 Heating Sizing Factor Information, Zone THERMAL ZONE 82,   1.2500    
 Heating Sizing Factor Information, Zone THERMAL ZONE 21,   1.2500    
 Heating Sizing Factor Information, Zone THERMAL ZONE 22,   1.2500    
 Heating Sizing Factor Information, Zone THERMAL ZONE 35,   1.2500    
 Heating Sizing Factor Information, Zone THERMAL ZONE 94,   1.2500    
 Heating Sizing Factor Information, Zone THERMAL ZONE 109,   1.2500    
 Heating Sizing Factor Information, Zone THERMAL ZONE 104,   1.2500    
 Heating Sizing Factor Information, Zone THERMAL ZONE 112,   1.2500    
 Heating Sizing Factor Information, Zone THERMAL ZONE 107,   1.2500    
 Heating Sizing Factor Information, Zone THERMAL ZONE 54,   1.2500    
 Heating Sizing Factor Information, Zone THERMAL ZONE 99,   1.2500    
 Heating Sizing Factor Information, Zone THERMAL ZONE 80,   1.2500    
 Heating Sizing Factor Information, Zone THERMAL ZONE 65,   1.2500    
 Heating Sizing Factor Information, Zone THERMAL ZONE 91,   1.2500    
 Heating Sizing Factor Information, Zone THERMAL ZONE 73,   1.2500    
 Heating Sizing Factor Information, Zone THERMAL ZONE 110,   1.2500    
 Heating Sizing Factor Information, Zone THERMAL ZONE 114,   1.2500    
 Heating Sizing Factor Information, Zone THERMAL ZONE 66,   1.2500    
 Heating Sizing Factor Information, Zone THERMAL ZONE 47,   1.2500    
 Heating Sizing Factor Information, Zone THERMAL ZONE 20,   1.2500    
 Heating Sizing Factor Information, Zone THERMAL ZONE 74,   1.2500    
 Heating Sizing Factor Information, Zone THERMAL ZONE 58,   1.2500    
 Heating Sizing Factor Information, Zone THERMAL ZONE 12,   1.2500    
 Heating Sizing Factor Information, Zone THERMAL ZONE 16,   1.2500    
 Heating Sizing Factor Information, Zone THERMAL ZONE 15,   1.2500    
 Heating Sizing Factor Information, Zone THERMAL ZONE 115,   1.2500    
 Heating Sizing Factor Information, Zone THERMAL ZONE 79,   1.2500    
 Heating Sizing Factor Information, Zone THERMAL ZONE 60,   1.2500    
 Heating Sizing Factor Information, Zone THERMAL ZONE 63,   1.2500    
 Heating Sizing Factor Information, Zone THERMAL ZONE 44,   1.2500    
 Heating Sizing Factor Information, Zone THERMAL ZONE 76,   1.2500    
 Heating Sizing Factor Information, Zone THERMAL ZONE 4,   1.2500    
 Heating Sizing Factor Information, Zone THERMAL ZONE 32,   1.2500    
! <Cooling Sizing Factor Information>, Sizing Factor ID, Value
 Cooling Sizing Factor Information, Global,   1.1500    
 Cooling Sizing Factor Information, Zone THERMAL ZONE 43,   1.1500    
 Cooling Sizing Factor Information, Zone THERMAL ZONE 72,   1.1500    
 Cooling Sizing Factor Information, Zone THERMAL ZONE 49,   1.1500    
 Cooling Sizing Factor Information, Zone THERMAL ZONE 38,   1.1500    
 Cooling Sizing Factor Information, Zone THERMAL ZONE 37,   1.1500    
 Cooling Sizing Factor Information, Zone THERMAL ZONE 83,   1.1500    
 Cooling Sizing Factor Information, Zone THERMAL ZONE 95,   1.1500    
 Cooling Sizing Factor Information, Zone THERMAL ZONE 9,   1.1500    
 Cooling Sizing Factor Information, Zone THERMAL ZONE 17,   1.1500    
 Cooling Sizing Factor Information, Zone THERMAL ZONE 67,   1.1500    
 Cooling Sizing Factor Information, Zone THERMAL ZONE 50,   1.1500    
 Cooling Sizing Factor Information, Zone THERMAL ZONE 18,   1.1500    
 Cooling Sizing Factor Information, Zone THERMAL ZONE 6,   1.1500    
 Cooling Sizing Factor Information, Zone THERMAL ZONE 39,   1.1500    
 Cooling Sizing Factor Information, Zone THERMAL ZONE 33,   1.1500    
 Cooling Sizing Factor Information, Zone THERMAL ZONE 13,   1.1500    
 Cooling Sizing Factor Information, Zone THERMAL ZONE 84,   1.1500    
 Cooling Sizing Factor Information, Zone THERMAL ZONE 71,   1.1500    
 Cooling Sizing Factor Information, Zone THERMAL ZONE 103,   1.1500    
 Cooling Sizing Factor Information, Zone THERMAL ZONE 75,   1.1500    
 Cooling Sizing Factor Information, Zone THERMAL ZONE 77,   1.1500    
 Cooling Sizing Factor Information, Zone THERMAL ZONE 92,   1.1500    
 Cooling Sizing Factor Information, Zone THERMAL ZONE 42,   1.1500    
 Cooling Sizing Factor Information, Zone THERMAL ZONE 102,   1.1500    
 Cooling Sizing Factor Information, Zone THERMAL ZONE 8,   1.1500    
 Cooling Sizing Factor Information, Zone THERMAL ZONE 55,   1.1500    
 Cooling Sizing Factor Information, Zone THERMAL ZONE 46,   1.1500    
 Cooling Sizing Factor Information, Zone THERMAL ZONE 64,   1.1500    
 Cooling Sizing Factor Information, Zone THERMAL ZONE 69,   1.1500    
 Cooling Sizing Factor Information, Zone THERMAL ZONE 10,   1.1500    
 Cooling Sizing Factor Information, Zone THERMAL ZONE 59,   1.1500    
 Cooling Sizing Factor Information, Zone THERMAL ZONE 93,   1.1500    
 Cooling Sizing Factor Information, Zone THERMAL ZONE 98,   1.1500    
 Cooling Sizing Factor Information, Zone THERMAL ZONE 57,   1.1500    
 Cooling Sizing Factor Information, Zone THERMAL ZONE 51,   1.1500    
 Cooling Sizing Factor Information, Zone THERMAL ZONE 1,   1.1500    
 Cooling Sizing Factor Information, Zone THERMAL ZONE 26,   1.1500    
 Cooling Sizing Factor Information, Zone THERMAL ZONE 30,   1.1500    
 Cooling Sizing Factor Information, Zone THERMAL ZONE 19,   1.1500    
 Cooling Sizing Factor Information, Zone THERMAL ZONE 106,   1.1500    
 Cooling Sizing Factor Information, Zone THERMAL ZONE 88,   1.1500    
 Cooling Sizing Factor Information, Zone THERMAL ZONE 28,   1.1500    
 Cooling Sizing Factor Information, Zone THERMAL ZONE 90,   1.1500    
 Cooling Sizing Factor Information, Zone THERMAL ZONE 101,   1.1500    
 Cooling Sizing Factor Information, Zone THERMAL ZONE 23,   1.1500    
 Cooling Sizing Factor Information, Zone THERMAL ZONE 48,   1.1500    
 Cooling Sizing Factor Information, Zone THERMAL ZONE 52,   1.1500    
 Cooling Sizing Factor Information, Zone THERMAL ZONE 113,   1.1500    
 Cooling Sizing Factor Information, Zone THERMAL ZONE 31,   1.1500    
 Cooling Sizing Factor Information, Zone THERMAL ZONE 34,   1.1500    
 Cooling Sizing Factor Information, Zone THERMAL ZONE 53,   1.1500    
 Cooling Sizing Factor Information, Zone THERMAL ZONE 36,   1.1500    
 Cooling Sizing Factor Information, Zone THERMAL ZONE 108,   1.1500    
 Cooling Sizing Factor Information, Zone THERMAL ZONE 56,   1.1500    
 Cooling Sizing Factor Information, Zone THERMAL ZONE 45,   1.1500    
 Cooling Sizing Factor Information, Zone THERMAL ZONE 105,   1.1500    
 Cooling Sizing Factor Information, Zone THERMAL ZONE 62,   1.1500    
 Cooling Sizing Factor Information, Zone THERMAL ZONE 81,   1.1500    
 Cooling Sizing Factor Information, Zone THERMAL ZONE 7,   1.1500    
 Cooling Sizing Factor Information, Zone THERMAL ZONE 3,   1.1500    
 Cooling Sizing Factor Information, Zone THERMAL ZONE 5,   1.1500    
 Cooling Sizing Factor Information, Zone THERMAL ZONE 61,   1.1500    
 Cooling Sizing Factor Information, Zone THERMAL ZONE 11,   1.1500    
 Cooling Sizing Factor Information, Zone THERMAL ZONE 70,   1.1500    
 Cooling Sizing Factor Information, Zone THERMAL ZONE 68,   1.1500    
 Cooling Sizing Factor Information, Zone THERMAL ZONE 87,   1.1500    
 Cooling Sizing Factor Information, Zone THERMAL ZONE 41,   1.1500    
 Cooling Sizing Factor Information, Zone THERMAL ZONE 100,   1.1500    
 Cooling Sizing Factor Information, Zone THERMAL ZONE 96,   1.1500    
 Cooling Sizing Factor Information, Zone THERMAL ZONE 40,   1.1500    
 Cooling Sizing Factor Information, Zone THERMAL ZONE 14,   1.1500    
 Cooling Sizing Factor Information, Zone THERMAL ZONE 29,   1.1500    
 Cooling Sizing Factor Information, Zone THERMAL ZONE 24,   1.1500    
 Cooling Sizing Factor Information, Zone THERMAL ZONE 25,   1.1500    
 Cooling Sizing Factor Information, Zone THERMAL ZONE 85,   1.1500    
 Cooling Sizing Factor Information, Zone THERMAL ZONE 2,   1.1500    
 Cooling Sizing Factor Information, Zone THERMAL ZONE 97,   1.1500    
 Cooling Sizing Factor Information, Zone THERMAL ZONE 27,   1.1500    
 Cooling Sizing Factor Information, Zone THERMAL ZONE 86,   1.1500    
 Cooling Sizing Factor Information, Zone THERMAL ZONE 89,   1.1500    
 Cooling Sizing Factor Information, Zone THERMAL ZONE 111,   1.1500    
 Cooling Sizing Factor Information, Zone THERMAL ZONE 78,   1.1500    
 Cooling Sizing Factor Information, Zone THERMAL ZONE 82,   1.1500    
 Cooling Sizing Factor Information, Zone THERMAL ZONE 21,   1.1500    
 Cooling Sizing Factor Information, Zone THERMAL ZONE 22,   1.1500    
 Cooling Sizing Factor Information, Zone THERMAL ZONE 35,   1.1500    
 Cooling Sizing Factor Information, Zone THERMAL ZONE 94,   1.1500    
 Cooling Sizing Factor Information, Zone THERMAL ZONE 109,   1.1500    
 Cooling Sizing Factor Information, Zone THERMAL ZONE 104,   1.1500    
 Cooling Sizing Factor Information, Zone THERMAL ZONE 112,   1.1500    
 Cooling Sizing Factor Information, Zone THERMAL ZONE 107,   1.1500    
 Cooling Sizing Factor Information, Zone THERMAL ZONE 54,   1.1500    
 Cooling Sizing Factor Information, Zone THERMAL ZONE 99,   1.1500    
 Cooling Sizing Factor Information, Zone THERMAL ZONE 80,   1.1500    
 Cooling Sizing Factor Information, Zone THERMAL ZONE 65,   1.1500    
 Cooling Sizing Factor Information, Zone THERMAL ZONE 91,   1.1500    
 Cooling Sizing Factor Information, Zone THERMAL ZONE 73,   1.1500    
 Cooling Sizing Factor Information, Zone THERMAL ZONE 110,   1.1500    
 Cooling Sizing Factor Information, Zone THERMAL ZONE 114,   1.1500    
 Cooling Sizing Factor Information, Zone THERMAL ZONE 66,   1.1500    
 Cooling Sizing Factor Information, Zone THERMAL ZONE 47,   1.1500    
 Cooling Sizing Factor Information, Zone THERMAL ZONE 20,   1.1500    
 Cooling Sizing Factor Information, Zone THERMAL ZONE 74,   1.1500    
 Cooling Sizing Factor Information, Zone THERMAL ZONE 58,   1.1500    
 Cooling Sizing Factor Information, Zone THERMAL ZONE 12,   1.1500    
 Cooling Sizing Factor Information, Zone THERMAL ZONE 16,   1.1500    
 Cooling Sizing Factor Information, Zone THERMAL ZONE 15,   1.1500    
 Cooling Sizing Factor Information, Zone THERMAL ZONE 115,   1.1500    
 Cooling Sizing Factor Information, Zone THERMAL ZONE 79,   1.1500    
 Cooling Sizing Factor Information, Zone THERMAL ZONE 60,   1.1500    
 Cooling Sizing Factor Information, Zone THERMAL ZONE 63,   1.1500    
 Cooling Sizing Factor Information, Zone THERMAL ZONE 44,   1.1500    
 Cooling Sizing Factor Information, Zone THERMAL ZONE 76,   1.1500    
 Cooling Sizing Factor Information, Zone THERMAL ZONE 4,   1.1500    
 Cooling Sizing Factor Information, Zone THERMAL ZONE 32,   1.1500    
! <Zone Sizing Information>, Zone Name, Load Type, Calc Des Load {W}, User Des Load {W}, Calc Des Air Flow Rate {m3/s}, User Des Air Flow Rate {m3/s}, Design Day Name, Date/Time of Peak, Temperature at Peak {C}, Humidity Ratio at Peak {kgWater/kgDryAir}, Floor Area {m2}, # Occupants, Calc Outdoor Air Flow Rate {m3/s}
 Zone Sizing Information, THERMAL ZONE 43, Cooling, 1263.98230, 1453.57965, 7.34689E-002, 8.44892E-002, CHICAGO OHARE INTL AP ANN CLG .4% CONDNS DB=>MWB, 7/21 17:15:00, 31.56750, 1.49611E-002, 36.89118, 0.00000, 0.00000
 Zone Sizing Information, THERMAL ZONE 43, Heating, 2072.76380, 2590.95475, 0.10552, 0.13189, CHICAGO OHARE INTL AP ANN HTG 99.6% CONDNS DB, 1/21 24:00:00, -20.00000, 6.49857E-004, 36.89118, 0.00000, 0.00000
 Zone Sizing Information, THERMAL ZONE 72, Cooling, 752.74154, 865.65277, 4.37532E-002, 5.03162E-002, CHICAGO OHARE INTL AP ANN CLG .4% CONDNS DB=>MWB, 7/21 18:30:00, 29.99250, 1.49611E-002, 36.89118, 0.00000, 0.00000
 Zone Sizing Information, THERMAL ZONE 72, Heating, 1988.40936, 2485.51170, 0.10122, 0.12653, CHICAGO OHARE INTL AP ANN HTG 99.6% CONDNS DB, 1/21 24:00:00, -20.00000, 6.49857E-004, 36.89118, 0.00000, 0.00000
 Zone Sizing Information, THERMAL ZONE 49, Cooling, 2306.14517, 2652.06695, 0.13405, 0.15415, CHICAGO OHARE INTL AP ANN CLG .4% CONDNS DB=>MWB, 7/21 17:30:00, 31.30500, 1.49611E-002, 36.89118, 0.00000, 0.00000
 Zone Sizing Information, THERMAL ZONE 49, Heating, 1955.08176, 2443.85220, 9.95251E-002, 0.12441, CHICAGO OHARE INTL AP ANN HTG 99.6% CONDNS DB, 1/21 24:00:00, -20.00000, 6.49857E-004, 36.89118, 0.00000, 0.00000
 Zone Sizing Information, THERMAL ZONE 38, Cooling, 428.89329, 493.22728, 2.49295E-002, 2.86689E-002, CHICAGO OHARE INTL AP ANN CLG .4% CONDNS DB=>MWB, 7/21 17:45:00, 31.04250, 1.49611E-002, 86.43530, 0.00000, 0.00000
 Zone Sizing Information, THERMAL ZONE 38, Heating, 570.10562, 712.63202, 2.90217E-002, 3.62771E-002, CHICAGO OHARE INTL AP ANN HTG 99.6% CONDNS DB, 1/21 24:00:00, -20.00000, 6.49857E-004, 86.43530, 0.00000, 0.00000
 Zone Sizing Information, THERMAL ZONE 37, Cooling, 1546.99537, 1779.04467, 8.99193E-002, 0.10341, CHICAGO OHARE INTL AP ANN CLG .4% CONDNS DB=>MWB, 7/21 14:30:00, 33.30000, 1.49611E-002, 36.89118, 0.00000, 0.00000
 Zone Sizing Information, THERMAL ZONE 37, Heating, 1950.20242, 2437.75303, 9.92767E-002, 0.12410, CHICAGO OHARE INTL AP ANN HTG 99.6% CONDNS DB, 1/21 24:00:00, -20.00000, 6.49857E-004, 36.89118, 0.00000, 0.00000
 Zone Sizing Information, THERMAL ZONE 83, Cooling, 1952.73258, 2245.64246, 0.11350, 0.13053, CHICAGO OHARE INTL AP ANN CLG .4% CONDNS DB=>MWB, 7/21 11:00:00, 30.88500, 1.49611E-002, 36.89118, 0.00000, 0.00000
 Zone Sizing Information, THERMAL ZONE 83, Heating, 1890.95446, 2363.69307, 9.62607E-002, 0.12033, CHICAGO OHARE INTL AP ANN HTG 99.6% CONDNS DB, 1/21 24:00:00, -20.00000, 6.49857E-004, 36.89118, 0.00000, 0.00000
 Zone Sizing Information, THERMAL ZONE 95, Cooling, 1948.72874, 2241.03805, 0.11327, 0.13026, CHICAGO OHARE INTL AP ANN CLG .4% CONDNS DB=>MWB, 7/21 11:00:00, 30.88500, 1.49611E-002, 36.89118, 0.00000, 0.00000
 Zone Sizing Information, THERMAL ZONE 95, Heating, 1923.03870, 2403.79837, 9.78939E-002, 0.12237, CHICAGO OHARE INTL AP ANN HTG 99.6% CONDNS DB, 1/21 24:00:00, -20.00000, 6.49857E-004, 36.89118, 0.00000, 0.00000
 Zone Sizing Information, THERMAL ZONE 9, Cooling, 1783.33049, 2050.83006, 0.10366, 0.11920, CHICAGO OHARE INTL AP ANN CLG .4% CONDNS DB=>MWB, 7/21 11:00:00, 30.88500, 1.49611E-002, 36.89118, 0.00000, 0.00000
 Zone Sizing Information, THERMAL ZONE 9, Heating, 1892.02633, 2365.03291, 9.63152E-002, 0.12039, CHICAGO OHARE INTL AP ANN HTG 99.6% CONDNS DB, 1/21 24:00:00, -20.00000, 6.49857E-004, 36.89118, 0.00000, 0.00000
 Zone Sizing Information, THERMAL ZONE 17, Cooling, 788.41860, 906.68138, 4.58266E-002, 5.27006E-002, CHICAGO OHARE INTL AP ANN CLG .4% CONDNS DB=>MWB, 7/21 10:30:00, 30.09750, 1.49611E-002, 36.89118, 0.00000, 0.00000
 Zone Sizing Information, THERMAL ZONE 17, Heating, 2058.54336, 2573.17921, 0.10479, 0.13099, CHICAGO OHARE INTL AP ANN HTG 99.6% CONDNS DB, 1/21 24:00:00, -20.00000, 6.49857E-004, 36.89118, 0.00000, 0.00000
 Zone Sizing Information, THERMAL ZONE 67, Cooling, 430.12941, 494.64883, 2.50013E-002, 2.87515E-002, CHICAGO OHARE INTL AP ANN CLG .4% CONDNS DB=>MWB, 7/21 17:45:00, 31.04250, 1.49611E-002, 86.43530, 0.00000, 0.00000
 Zone Sizing Information, THERMAL ZONE 67, Heating, 568.15763, 710.19703, 2.89226E-002, 3.61532E-002, CHICAGO OHARE INTL AP ANN HTG 99.6% CONDNS DB, 1/21 24:00:00, -20.00000, 6.49857E-004, 86.43530, 0.00000, 0.00000
 Zone Sizing Information, THERMAL ZONE 50, Cooling, 770.04004, 885.54604, 4.47587E-002, 5.14725E-002, CHICAGO OHARE INTL AP ANN CLG .4% CONDNS DB=>MWB, 7/21 18:30:00, 29.99250, 1.49611E-002, 36.89118, 0.00000, 0.00000
 Zone Sizing Information, THERMAL ZONE 50, Heating, 1927.73378, 2409.66723, 9.81330E-002, 0.12267, CHICAGO OHARE INTL AP ANN HTG 99.6% CONDNS DB, 1/21 24:00:00, -20.00000, 6.49857E-004, 36.89118, 0.00000, 0.00000
 Zone Sizing Information, THERMAL ZONE 18, Cooling, 2314.89244, 2662.12631, 0.13455, 0.15474, CHICAGO OHARE INTL AP ANN CLG .4% CONDNS DB=>MWB, 7/21 17:30:00, 31.30500, 1.49611E-002, 36.89118, 0.00000, 0.00000
 Zone Sizing Information, THERMAL ZONE 18, Heating, 1941.53369, 2426.91712, 9.88354E-002, 0.12354, CHICAGO OHARE INTL AP ANN HTG 99.6% CONDNS DB, 1/21 24:00:00, -20.00000, 6.49857E-004, 36.89118, 0.00000, 0.00000
 Zone Sizing Information, THERMAL ZONE 6, Cooling, 765.74552, 880.60735, 4.45091E-002, 5.11854E-002, CHICAGO OHARE INTL AP ANN CLG .4% CONDNS DB=>MWB, 7/21 18:30:00, 29.99250, 1.49611E-002, 36.89118, 0.00000, 0.00000
 Zone Sizing Information, THERMAL ZONE 6, Heating, 1954.20389, 2442.75487, 9.94804E-002, 0.12435, CHICAGO OHARE INTL AP ANN HTG 99.6% CONDNS DB, 1/21 24:00:00, -20.00000, 6.49857E-004, 36.89118, 0.00000, 0.00000
 Zone Sizing Information, THERMAL ZONE 39, Cooling, 1961.75076, 2256.01337, 0.11403, 0.13113, CHICAGO OHARE INTL AP ANN CLG .4% CONDNS DB=>MWB, 7/21 11:00:00, 30.88500, 1.49611E-002, 36.89118, 0.00000, 0.00000
 Zone Sizing Information, THERMAL ZONE 39, Heating, 1906.85870, 2383.57338, 9.70703E-002, 0.12134, CHICAGO OHARE INTL AP ANN HTG 99.6% CONDNS DB, 1/21 24:00:00, -20.00000, 6.49857E-004, 36.89118, 0.00000, 0.00000
 Zone Sizing Information, THERMAL ZONE 33, Heating, 2072.45579, 2590.56974, 0.10550, 0.13188, CHICAGO OHARE INTL AP ANN HTG 99.6% CONDNS DB, 1/21 24:00:00, -20.00000, 6.49857E-004, 36.89118, 0.00000, 0.00000
 Zone Sizing Information, THERMAL ZONE 13, Heating, 1169.24130, 1461.55162, 5.95212E-002, 7.44015E-002, CHICAGO OHARE INTL AP ANN HTG 99.6% CONDNS DB, 1/21 24:00:00, -20.00000, 6.49857E-004, 86.43530, 0.00000, 0.00000
 Zone Sizing Information, THERMAL ZONE 84, Cooling, 431.45701, 496.17557, 2.50785E-002, 2.88403E-002, CHICAGO OHARE INTL AP ANN CLG .4% CONDNS DB=>MWB, 7/21 17:45:00, 31.04250, 1.49611E-002, 86.43530, 0.00000, 0.00000
 Zone Sizing Information, THERMAL ZONE 84, Heating, 566.55620, 708.19525, 2.88410E-002, 3.60513E-002, CHICAGO OHARE INTL AP ANN HTG 99.6% CONDNS DB, 1/21 24:00:00, -20.00000, 6.49857E-004, 86.43530, 0.00000, 0.00000
 Zone Sizing Information, THERMAL ZONE 71, Cooling, 1495.13477, 1719.40499, 8.69049E-002, 9.99407E-002, CHICAGO OHARE INTL AP ANN CLG .4% CONDNS DB=>MWB, 7/21 14:30:00, 33.30000, 1.49611E-002, 36.89118, 0.00000, 0.00000
 Zone Sizing Information, THERMAL ZONE 71, Heating, 2307.60930, 2884.51162, 0.11747, 0.14684, CHICAGO OHARE INTL AP ANN HTG 99.6% CONDNS DB, 1/21 24:00:00, -20.00000, 6.49857E-004, 36.89118, 0.00000, 0.00000
 Zone Sizing Information, THERMAL ZONE 103, Cooling, 759.13302, 873.00298, 4.41247E-002, 5.07434E-002, CHICAGO OHARE INTL AP ANN CLG .4% CONDNS DB=>MWB, 7/21 18:30:00, 29.99250, 1.49611E-002, 36.89118, 0.00000, 0.00000
 Zone Sizing Information, THERMAL ZONE 103, Heating, 1972.97863, 2466.22329, 0.10044, 0.12555, CHICAGO OHARE INTL AP ANN HTG 99.6% CONDNS DB, 1/21 24:00:00, -20.00000, 6.49857E-004, 36.89118, 0.00000, 0.00000
 Zone Sizing Information, THERMAL ZONE 75, Cooling, 383.27332, 440.76431, 2.22778E-002, 2.56195E-002, CHICAGO OHARE INTL AP ANN CLG .4% CONDNS DB=>MWB, 7/21 18:00:00, 30.78000, 1.49611E-002, 86.43530, 0.00000, 0.00000
 Zone Sizing Information, THERMAL ZONE 75, Heating, 560.86638, 701.08297, 2.85514E-002, 3.56892E-002, CHICAGO OHARE INTL AP ANN HTG 99.6% CONDNS DB, 1/21 24:00:00, -20.00000, 6.49857E-004, 86.43530, 0.00000, 0.00000
 Zone Sizing Information, THERMAL ZONE 77, Cooling, 770.26392, 885.80351, 4.47717E-002, 5.14875E-002, CHICAGO OHARE INTL AP ANN CLG .4% CONDNS DB=>MWB, 7/21 18:30:00, 29.99250, 1.49611E-002, 36.89118, 0.00000, 0.00000
 Zone Sizing Information, THERMAL ZONE 77, Heating, 1934.84876, 2418.56094, 9.84951E-002, 0.12312, CHICAGO OHARE INTL AP ANN HTG 99.6% CONDNS DB, 1/21 24:00:00, -20.00000, 6.49857E-004, 36.89118, 0.00000, 0.00000
 Zone Sizing Information, THERMAL ZONE 92, Cooling, 1964.95147, 2259.69419, 0.11421, 0.13135, CHICAGO OHARE INTL AP ANN CLG .4% CONDNS DB=>MWB, 7/21 11:00:00, 30.88500, 1.49611E-002, 36.89118, 0.00000, 0.00000
 Zone Sizing Information, THERMAL ZONE 92, Heating, 1902.38700, 2377.98375, 9.68427E-002, 0.12105, CHICAGO OHARE INTL AP ANN HTG 99.6% CONDNS DB, 1/21 24:00:00, -20.00000, 6.49857E-004, 36.89118, 0.00000, 0.00000
 Zone Sizing Information, THERMAL ZONE 42, Cooling, 755.88475, 869.26746, 4.39359E-002, 5.05263E-002, CHICAGO OHARE INTL AP ANN CLG .4% CONDNS DB=>MWB, 7/21 18:30:00, 29.99250, 1.49611E-002, 36.89118, 0.00000, 0.00000
 Zone Sizing Information, THERMAL ZONE 42, Heating, 1980.49668, 2475.62085, 0.10082, 0.12602, CHICAGO OHARE INTL AP ANN HTG 99.6% CONDNS DB, 1/21 24:00:00, -20.00000, 6.49857E-004, 36.89118, 0.00000, 0.00000
 Zone Sizing Information, THERMAL ZONE 102, Cooling, 1527.08019, 1756.14222, 8.87618E-002, 0.10208, CHICAGO OHARE INTL AP ANN CLG .4% CONDNS DB=>MWB, 7/21 14:30:00, 33.30000, 1.49611E-002, 36.89118, 0.00000, 0.00000
 Zone Sizing Information, THERMAL ZONE 102, Heating, 1985.19013, 2481.48767, 0.10106, 0.12632, CHICAGO OHARE INTL AP ANN HTG 99.6% CONDNS DB, 1/21 24:00:00, -20.00000, 6.49857E-004, 36.89118, 0.00000, 0.00000
 Zone Sizing Information, THERMAL ZONE 8, Cooling, 429.26803, 493.65824, 2.49513E-002, 2.86940E-002, CHICAGO OHARE INTL AP ANN CLG .4% CONDNS DB=>MWB, 7/21 17:45:00, 31.04250, 1.49611E-002, 86.43530, 0.00000, 0.00000
 Zone Sizing Information, THERMAL ZONE 8, Heating, 569.18312, 711.47889, 2.89748E-002, 3.62184E-002, CHICAGO OHARE INTL AP ANN HTG 99.6% CONDNS DB, 1/21 24:00:00, -20.00000, 6.49857E-004, 86.43530, 0.00000, 0.00000
 Zone Sizing Information, THERMAL ZONE 55, Cooling, 2279.17631, 2621.05275, 0.13248, 0.15235, CHICAGO OHARE INTL AP ANN CLG .4% CONDNS DB=>MWB, 7/21 17:30:00, 31.30500, 1.49611E-002, 36.89118, 0.00000, 0.00000
 Zone Sizing Information, THERMAL ZONE 55, Heating, 2007.43612, 2509.29515, 0.10219, 0.12774, CHICAGO OHARE INTL AP ANN HTG 99.6% CONDNS DB, 1/21 24:00:00, -20.00000, 6.49857E-004, 36.89118, 0.00000, 0.00000
 Zone Sizing Information, THERMAL ZONE 46, Cooling, 2296.90403, 2641.43963, 0.13351, 0.15353, CHICAGO OHARE INTL AP ANN CLG .4% CONDNS DB=>MWB, 7/21 17:30:00, 31.30500, 1.49611E-002, 36.89118, 0.00000, 0.00000
 Zone Sizing Information, THERMAL ZONE 46, Heating, 1968.36307, 2460.45384, 0.10020, 0.12525, CHICAGO OHARE INTL AP ANN HTG 99.6% CONDNS DB, 1/21 24:00:00, -20.00000, 6.49857E-004, 36.89118, 0.00000, 0.00000
 Zone Sizing Information, THERMAL ZONE 64, Cooling, 2294.82926, 2639.05365, 0.13339, 0.15340, CHICAGO OHARE INTL AP ANN CLG .4% CONDNS DB=>MWB, 7/21 17:30:00, 31.30500, 1.49611E-002, 36.89118, 0.00000, 0.00000
 Zone Sizing Information, THERMAL ZONE 64, Heating, 1971.21556, 2464.01945, 0.10035, 0.12543, CHICAGO OHARE INTL AP ANN HTG 99.6% CONDNS DB, 1/21 24:00:00, -20.00000, 6.49857E-004, 36.89118, 0.00000, 0.00000
 Zone Sizing Information, THERMAL ZONE 69, Cooling, 430.17421, 494.70034, 2.50039E-002, 2.87545E-002, CHICAGO OHARE INTL AP ANN CLG .4% CONDNS DB=>MWB, 7/21 18:00:00, 30.78000, 1.49611E-002, 86.43530, 0.00000, 0.00000
 Zone Sizing Information, THERMAL ZONE 69, Heating, 558.40156, 698.00195, 2.84259E-002, 3.55324E-002, CHICAGO OHARE INTL AP ANN HTG 99.6% CONDNS DB, 1/21 24:00:00, -20.00000, 6.49857E-004, 86.43530, 0.00000, 0.00000
 Zone Sizing Information, THERMAL ZONE 10, Cooling, 1944.39734, 2236.05694, 0.11302, 0.12997, CHICAGO OHARE INTL AP ANN CLG .4% CONDNS DB=>MWB, 7/21 11:00:00, 30.88500, 1.49611E-002, 36.89118, 0.00000, 0.00000
 Zone Sizing Information, THERMAL ZONE 10, Heating, 1928.06454, 2410.08068, 9.81498E-002, 0.12269, CHICAGO OHARE INTL AP ANN HTG 99.6% CONDNS DB, 1/21 24:00:00, -20.00000, 6.49857E-004, 36.89118, 0.00000, 0.00000
 Zone Sizing Information, THERMAL ZONE 59, Cooling, 2310.12036, 2656.63841, 0.13428, 0.15442, CHICAGO OHARE INTL AP ANN CLG .4% CONDNS DB=>MWB, 7/21 17:30:00, 31.30500, 1.49611E-002, 36.89118, 0.00000, 0.00000
 Zone Sizing Information, THERMAL ZONE 59, Heating, 1919.77800, 2399.72250, 9.77280E-002, 0.12216, CHICAGO OHARE INTL AP ANN HTG 99.6% CONDNS DB, 1/21 24:00:00, -20.00000, 6.49857E-004, 36.89118, 0.00000, 0.00000
 Zone Sizing Information, THERMAL ZONE 93, Cooling, 434.81728, 500.03987, 2.52738E-002, 2.90649E-002, CHICAGO OHARE INTL AP ANN CLG .4% CONDNS DB=>MWB, 7/21 17:45:00, 31.04250, 1.49611E-002, 86.43530, 0.00000, 0.00000
 Zone Sizing Information, THERMAL ZONE 93, Heating, 561.58672, 701.98340, 2.85881E-002, 3.57351E-002, CHICAGO OHARE INTL AP ANN HTG 99.6% CONDNS DB, 1/21 24:00:00, -20.00000, 6.49857E-004, 86.43530, 0.00000, 0.00000
 Zone Sizing Information, THERMAL ZONE 98, Cooling, 1869.03033, 2149.38489, 0.10864, 0.12493, CHICAGO OHARE INTL AP ANN CLG .4% CONDNS DB=>MWB, 7/21 11:00:00, 30.88500, 1.49611E-002, 36.89118, 0.00000, 0.00000
 Zone Sizing Information, THERMAL ZONE 98, Heating, 2265.14830, 2831.43538, 0.11531, 0.14414, CHICAGO OHARE INTL AP ANN HTG 99.6% CONDNS DB, 1/21 24:00:00, -20.00000, 6.49857E-004, 36.89118, 0.00000, 0.00000
 Zone Sizing Information, THERMAL ZONE 57, Cooling, 1531.69991, 1761.45490, 8.90303E-002, 0.10238, CHICAGO OHARE INTL AP ANN CLG .4% CONDNS DB=>MWB, 7/21 14:30:00, 33.30000, 1.49611E-002, 36.89118, 0.00000, 0.00000
 Zone Sizing Information, THERMAL ZONE 57, Heating, 1978.07984, 2472.59979, 0.10070, 0.12587, CHICAGO OHARE INTL AP ANN HTG 99.6% CONDNS DB, 1/21 24:00:00, -20.00000, 6.49857E-004, 36.89118, 0.00000, 0.00000
 Zone Sizing Information, THERMAL ZONE 51, Cooling, 2177.16737, 2503.74248, 0.12655, 0.14553, CHICAGO OHARE INTL AP ANN CLG .4% CONDNS DB=>MWB, 7/21 17:45:00, 31.04250, 1.49611E-002, 36.89118, 0.00000, 0.00000
 Zone Sizing Information, THERMAL ZONE 51, Heating, 1916.63799, 2395.79749, 9.75681E-002, 0.12196, CHICAGO OHARE INTL AP ANN HTG 99.6% CONDNS DB, 1/21 24:00:00, -20.00000, 6.49857E-004, 36.89118, 0.00000, 0.00000
 Zone Sizing Information, THERMAL ZONE 1, Cooling, 751.86558, 864.64542, 4.37023E-002, 5.02576E-002, CHICAGO OHARE INTL AP ANN CLG .4% CONDNS DB=>MWB, 7/21 18:30:00, 29.99250, 1.49611E-002, 36.89118, 0.00000, 0.00000
 Zone Sizing Information, THERMAL ZONE 1, Heating, 2006.42671, 2508.03339, 0.10214, 0.12767, CHICAGO OHARE INTL AP ANN HTG 99.6% CONDNS DB, 1/21 24:00:00, -20.00000, 6.49857E-004, 36.89118, 0.00000, 0.00000
 Zone Sizing Information, THERMAL ZONE 26, Cooling, 431.90901, 496.69536, 2.51048E-002, 2.88705E-002, CHICAGO OHARE INTL AP ANN CLG .4% CONDNS DB=>MWB, 7/21 17:45:00, 31.04250, 1.49611E-002, 86.43530, 0.00000, 0.00000
 Zone Sizing Information, THERMAL ZONE 26, Heating, 565.97602, 707.47002, 2.88115E-002, 3.60144E-002, CHICAGO OHARE INTL AP ANN HTG 99.6% CONDNS DB, 1/21 24:00:00, -20.00000, 6.49857E-004, 86.43530, 0.00000, 0.00000
 Zone Sizing Information, THERMAL ZONE 30, Cooling, 782.70390, 900.10949, 4.54948E-002, 5.23190E-002, CHICAGO OHARE INTL AP ANN CLG .4% CONDNS DB=>MWB, 7/21 18:30:00, 29.99250, 1.49611E-002, 36.89118, 0.00000, 0.00000
 Zone Sizing Information, THERMAL ZONE 30, Heating, 2307.60930, 2884.51162, 0.11747, 0.14684, CHICAGO OHARE INTL AP ANN HTG 99.6% CONDNS DB, 1/21 24:00:00, -20.00000, 6.49857E-004, 36.89118, 0.00000, 0.00000
 Zone Sizing Information, THERMAL ZONE 19, Cooling, 1553.25171, 1786.23947, 9.02830E-002, 0.10383, CHICAGO OHARE INTL AP ANN CLG .4% CONDNS DB=>MWB, 7/21 14:30:00, 33.30000, 1.49611E-002, 36.89118, 0.00000, 0.00000
 Zone Sizing Information, THERMAL ZONE 19, Heating, 1934.84876, 2418.56094, 9.84951E-002, 0.12312, CHICAGO OHARE INTL AP ANN HTG 99.6% CONDNS DB, 1/21 24:00:00, -20.00000, 6.49857E-004, 36.89118, 0.00000, 0.00000
 Zone Sizing Information, THERMAL ZONE 106, Cooling, 2281.74090, 2624.00203, 0.13263, 0.15252, CHICAGO OHARE INTL AP ANN CLG .4% CONDNS DB=>MWB, 7/21 17:30:00, 31.30500, 1.49611E-002, 36.89118, 0.00000, 0.00000
 Zone Sizing Information, THERMAL ZONE 106, Heating, 1989.41883, 2486.77354, 0.10127, 0.12659, CHICAGO OHARE INTL AP ANN HTG 99.6% CONDNS DB, 1/21 24:00:00, -20.00000, 6.49857E-004, 36.89118, 0.00000, 0.00000
 Zone Sizing Information, THERMAL ZONE 88, Cooling, 2283.48409, 2626.00670, 0.13273, 0.15264, CHICAGO OHARE INTL AP ANN CLG .4% CONDNS DB=>MWB, 7/21 17:30:00, 31.30500, 1.49611E-002, 36.89118, 0.00000, 0.00000
 Zone Sizing Information, THERMAL ZONE 88, Heating, 1986.19285, 2482.74106, 0.10111, 0.12639, CHICAGO OHARE INTL AP ANN HTG 99.6% CONDNS DB, 1/21 24:00:00, -20.00000, 6.49857E-004, 36.89118, 0.00000, 0.00000
 Zone Sizing Information, THERMAL ZONE 28, Cooling, 1548.98320, 1781.33068, 9.00349E-002, 0.10354, CHICAGO OHARE INTL AP ANN CLG .4% CONDNS DB=>MWB, 7/21 14:30:00, 33.30000, 1.49611E-002, 36.89118, 0.00000, 0.00000
 Zone Sizing Information, THERMAL ZONE 28, Heating, 1945.76051, 2432.20064, 9.90506E-002, 0.12381, CHICAGO OHARE INTL AP ANN HTG 99.6% CONDNS DB, 1/21 24:00:00, -20.00000, 6.49857E-004, 36.89118, 0.00000, 0.00000
 Zone Sizing Information, THERMAL ZONE 90, Cooling, 430.56790, 495.15308, 2.50268E-002, 2.87808E-002, CHICAGO OHARE INTL AP ANN CLG .4% CONDNS DB=>MWB, 7/21 17:45:00, 31.04250, 1.49611E-002, 86.43530, 0.00000, 0.00000
 Zone Sizing Information, THERMAL ZONE 90, Heating, 567.64366, 709.55458, 2.88964E-002, 3.61205E-002, CHICAGO OHARE INTL AP ANN HTG 99.6% CONDNS DB, 1/21 24:00:00, -20.00000, 6.49857E-004, 86.43530, 0.00000, 0.00000
 Zone Sizing Information, THERMAL ZONE 101, Cooling, 1554.11028, 1787.22682, 9.03329E-002, 0.10388, CHICAGO OHARE INTL AP ANN CLG .4% CONDNS DB=>MWB, 7/21 14:30:00, 33.30000, 1.49611E-002, 36.89118, 0.00000, 0.00000
 Zone Sizing Information, THERMAL ZONE 101, Heating, 1927.73378, 2409.66723, 9.81330E-002, 0.12267, CHICAGO OHARE INTL AP ANN HTG 99.6% CONDNS DB, 1/21 24:00:00, -20.00000, 6.49857E-004, 36.89118, 0.00000, 0.00000
 Zone Sizing Information, THERMAL ZONE 23, Cooling, 625.22084, 719.00396, 3.63411E-002, 4.17922E-002, CHICAGO OHARE INTL AP ANN CLG .4% CONDNS DB=>MWB, 7/21 18:30:00, 29.99250, 1.49611E-002, 36.89118, 0.00000, 0.00000
 Zone Sizing Information, THERMAL ZONE 23, Heating, 1916.06871, 2395.08589, 9.75391E-002, 0.12192, CHICAGO OHARE INTL AP ANN HTG 99.6% CONDNS DB, 1/21 24:00:00, -20.00000, 6.49857E-004, 36.89118, 0.00000, 0.00000
[...]
 Warmup Convergence Information,THERMAL ZONE 79,SizingPeriod: CHICAGO OHARE INTL AP ANN CLG .4% CONDNS ENTH=>MDB,8.3464381626E-002,0.1012523853,Pass,Pass,3.0219084172E-002,3.5682939481E-002,Pass,Pass
 Warmup Convergence Information,THERMAL ZONE 60,SizingPeriod: CHICAGO OHARE INTL AP ANN CLG .4% CONDNS ENTH=>MDB,3.0595620833E-002,1.3215685477E-002,Pass,Pass,2.4419548750E-003,1.0306331875E-003,Pass,Pass
 Warmup Convergence Information,THERMAL ZONE 63,SizingPeriod: CHICAGO OHARE INTL AP ANN CLG .4% CONDNS ENTH=>MDB,8.3485161819E-002,0.1017565211,Pass,Pass,3.0872822525E-002,3.6034090962E-002,Pass,Pass
 Warmup Convergence Information,THERMAL ZONE 44,SizingPeriod: CHICAGO OHARE INTL AP ANN CLG .4% CONDNS ENTH=>MDB,8.3388622430E-002,0.1048105027,Pass,Pass,2.9796169165E-002,3.5046260039E-002,Pass,Pass
 Warmup Convergence Information,THERMAL ZONE 76,SizingPeriod: CHICAGO OHARE INTL AP ANN CLG .4% CONDNS ENTH=>MDB,8.3383599870E-002,0.1049208011,Pass,Pass,2.9660975006E-002,3.4931374565E-002,Pass,Pass
 Warmup Convergence Information,THERMAL ZONE 4,SizingPeriod: CHICAGO OHARE INTL AP ANN CLG .4% CONDNS ENTH=>MDB,8.3380223219E-002,0.1047372672,Pass,Pass,3.0609948258E-002,3.6971409318E-002,Pass,Pass
 Warmup Convergence Information,THERMAL ZONE 32,SizingPeriod: CHICAGO OHARE INTL AP ANN CLG .4% CONDNS ENTH=>MDB,8.3390789104E-002,0.1047923342,Pass,Pass,3.1008335431E-002,3.7473099530E-002,Pass,Pass
Environment,RUN PERIOD 1,WeatherFileRunPeriod,01/01,12/31,Thursday,365,Use RunPeriod Specified Day,Yes,Yes,No ,Yes,Yes
Environment:Daylight Saving,Yes,InputFile,03/08,11/01
Environment:WarmupDays,  6
 Warmup Convergence Information,THERMAL ZONE 43,RunPeriod: RUN PERIOD 1,1.7566044272E-003,1.4481603070E-003,Pass,Pass,0.2828142829,1.5640075570,Pass,Pass
 Warmup Convergence Information,THERMAL ZONE 72,RunPeriod: RUN PERIOD 1,1.8423975266E-003,1.1717102491E-003,Pass,Pass,2.6681707163E-002,1.9524945204E-002,Pass,Pass
 Warmup Convergence Information,THERMAL ZONE 49,RunPeriod: RUN PERIOD 1,1.5382822311E-003,9.5949715185E-004,Pass,Pass,0.2100874535,0.5732579605,Pass,Pass
 Warmup Convergence Information,THERMAL ZONE 38,RunPeriod: RUN PERIOD 1,4.7659902669E-004,1.2364763391E-003,Pass,Pass,0.3574123701,1.7030932834,Pass,Pass
 Warmup Convergence Information,THERMAL ZONE 37,RunPeriod: RUN PERIOD 1,8.4104037844E-002,0.1086172667,Pass,Pass,0.2406689431,0.9172810643,Pass,Pass
 Warmup Convergence Information,THERMAL ZONE 83,RunPeriod: RUN PERIOD 1,1.2577549722E-003,8.8751943695E-004,Pass,Pass,0.3904429196,1.8461999280,Pass,Pass
 Warmup Convergence Information,THERMAL ZONE 95,RunPeriod: RUN PERIOD 1,1.1091201453E-003,9.2490922565E-004,Pass,Pass,0.2469867048,0.9309882845,Pass,Pass
 Warmup Convergence Information,THERMAL ZONE 9,RunPeriod: RUN PERIOD 1,1.2910000380E-003,1.0523058561E-003,Pass,Pass,0.2122066436,0.6496475180,Pass,Pass
 Warmup Convergence Information,THERMAL ZONE 17,RunPeriod: RUN PERIOD 1,1.7784875209E-003,1.4958339460E-003,Pass,Pass,0.2457599890,1.0573150728,Pass,Pass
 Warmup Convergence Information,THERMAL ZONE 67,RunPeriod: RUN PERIOD 1,6.1550236447E-004,1.8305867872E-003,Pass,Pass,0.2115072967,0.4506376351,Pass,Pass
 Warmup Convergence Information,THERMAL ZONE 50,RunPeriod: RUN PERIOD 1,1.5737813704E-003,1.1579018078E-003,Pass,Pass,2.7866811440E-002,2.0072169879E-002,Pass,Pass
 Warmup Convergence Information,THERMAL ZONE 18,RunPeriod: RUN PERIOD 1,1.7908660504E-003,1.1633718452E-003,Pass,Pass,0.1867569065,0.4064259007,Pass,Pass
 Warmup Convergence Information,THERMAL ZONE 6,RunPeriod: RUN PERIOD 1,1.3000781525E-003,9.5060821313E-004,Pass,Pass,2.7082036664E-002,1.9885987354E-002,Pass,Pass
 Warmup Convergence Information,THERMAL ZONE 39,RunPeriod: RUN PERIOD 1,1.2822279607E-003,9.0833842036E-004,Pass,Pass,0.3833221003,1.7651679686,Pass,Pass
 Warmup Convergence Information,THERMAL ZONE 33,RunPeriod: RUN PERIOD 1,1.8294641726E-003,1.5070785833E-003,Pass,Pass,1.7069942483E-002,1.4092828279E-002,Pass,Pass
 Warmup Convergence Information,THERMAL ZONE 13,RunPeriod: RUN PERIOD 1,1.7750810275E-003,2.2993167468E-003,Pass,Pass,1.3461941965E-002,1.2632410295E-002,Pass,Pass
 Warmup Convergence Information,THERMAL ZONE 84,RunPeriod: RUN PERIOD 1,6.8617527103E-004,2.1761394748E-003,Pass,Pass,0.2337643303,0.6076704613,Pass,Pass
 Warmup Convergence Information,THERMAL ZONE 71,RunPeriod: RUN PERIOD 1,5.9719459215E-002,9.6073528336E-002,Pass,Pass,0.2956185634,1.1685856387,Pass,Pass
 Warmup Convergence Information,THERMAL ZONE 103,RunPeriod: RUN PERIOD 1,1.5661910008E-003,1.1478740999E-003,Pass,Pass,2.6801437814E-002,1.9950341311E-002,Pass,Pass
 Warmup Convergence Information,THERMAL ZONE 75,RunPeriod: RUN PERIOD 1,5.8346624456E-004,1.8077755535E-003,Pass,Pass,0.2416747478,0.6738954744,Pass,Pass
 Warmup Convergence Information,THERMAL ZONE 77,RunPeriod: RUN PERIOD 1,1.4938109274E-003,9.9466549198E-004,Pass,Pass,2.7458272742E-002,2.0414497715E-002,Pass,Pass
 Warmup Convergence Information,THERMAL ZONE 92,RunPeriod: RUN PERIOD 1,1.2636366538E-003,1.0837335124E-003,Pass,Pass,0.3942681305,1.8401293594,Pass,Pass
 Warmup Convergence Information,THERMAL ZONE 42,RunPeriod: RUN PERIOD 1,1.6857149608E-003,1.2660700842E-003,Pass,Pass,2.6763907121E-002,1.9894769306E-002,Pass,Pass
 Warmup Convergence Information,THERMAL ZONE 102,RunPeriod: RUN PERIOD 1,8.2557775582E-002,0.1076823716,Pass,Pass,0.9475162592,7.6104223252,Pass,Pass
 Warmup Convergence Information,THERMAL ZONE 8,RunPeriod: RUN PERIOD 1,5.1817522698E-004,1.4857696900E-003,Pass,Pass,0.2310651464,0.5525996069,Pass,Pass
 Warmup Convergence Information,THERMAL ZONE 55,RunPeriod: RUN PERIOD 1,1.4806166216E-003,1.1864561753E-003,Pass,Pass,0.4368746021,2.4705653862,Pass,Pass
 Warmup Convergence Information,THERMAL ZONE 46,RunPeriod: RUN PERIOD 1,1.4274065128E-003,1.1333219633E-003,Pass,Pass,0.8052498725,6.2644726897,Pass,Pass
 Warmup Convergence Information,THERMAL ZONE 64,RunPeriod: RUN PERIOD 1,1.4320103309E-003,1.0763234160E-003,Pass,Pass,0.3144345520,1.4896011362,Pass,Pass
 Warmup Convergence Information,THERMAL ZONE 69,RunPeriod: RUN PERIOD 1,1.0584639494E-003,3.4494339551E-003,Pass,Pass,0.9480231561,7.4968083016,Pass,Pass
 Warmup Convergence Information,THERMAL ZONE 10,RunPeriod: RUN PERIOD 1,1.2794016829E-003,9.5012091558E-004,Pass,Pass,0.2434847165,0.9060479942,Pass,Pass
 Warmup Convergence Information,THERMAL ZONE 59,RunPeriod: RUN PERIOD 1,1.3267569418E-003,9.7605716982E-004,Pass,Pass,0.1796701381,0.3667524985,Pass,Pass
 Warmup Convergence Information,THERMAL ZONE 93,RunPeriod: RUN PERIOD 1,9.8352775898E-004,3.2900257746E-003,Pass,Pass,0.7597125156,5.5259499967,Pass,Pass
 Warmup Convergence Information,THERMAL ZONE 98,RunPeriod: RUN PERIOD 1,1.5434384523E-003,9.5556937158E-004,Pass,Pass,0.2549644711,0.8909064205,Pass,Pass
 Warmup Convergence Information,THERMAL ZONE 57,RunPeriod: RUN PERIOD 1,8.3116848538E-002,0.1079444399,Pass,Pass,0.5009985694,2.7638186300,Pass,Pass
 Warmup Convergence Information,THERMAL ZONE 51,RunPeriod: RUN PERIOD 1,1.4827618164E-003,1.0153156112E-003,Pass,Pass,0.2077566664,0.4990665989,Pass,Pass
 Warmup Convergence Information,THERMAL ZONE 1,RunPeriod: RUN PERIOD 1,1.3482734611E-003,1.0363188207E-003,Pass,Pass,2.6025281045E-002,1.8929336113E-002,Pass,Pass
 Warmup Convergence Information,THERMAL ZONE 26,RunPeriod: RUN PERIOD 1,7.2437267162E-004,2.2587655871E-003,Pass,Pass,0.3111379822,1.1287629997,Pass,Pass
 Warmup Convergence Information,THERMAL ZONE 30,RunPeriod: RUN PERIOD 1,1.6487477984E-003,1.1424936063E-003,Pass,Pass,2.1778844218E-002,1.5393774910E-002,Pass,Pass
 Warmup Convergence Information,THERMAL ZONE 19,RunPeriod: RUN PERIOD 1,8.4024123470E-002,0.1091722429,Pass,Pass,0.2481230602,0.8661016988,Pass,Pass
 Warmup Convergence Information,THERMAL ZONE 106,RunPeriod: RUN PERIOD 1,1.5314687304E-003,1.2164295761E-003,Pass,Pass,0.2150459179,0.5385792684,Pass,Pass
 Warmup Convergence Information,THERMAL ZONE 88,RunPeriod: RUN PERIOD 1,1.3864297637E-003,1.0915540606E-003,Pass,Pass,0.2068689015,0.4945932828,Pass,Pass
 Warmup Convergence Information,THERMAL ZONE 28,RunPeriod: RUN PERIOD 1,8.3993953058E-002,0.1089082735,Pass,Pass,0.2242256834,0.7679394959,Pass,Pass
 Warmup Convergence Information,THERMAL ZONE 90,RunPeriod: RUN PERIOD 1,6.1353791001E-004,2.0190635583E-003,Pass,Pass,0.2196697074,0.5078801451,Pass,Pass
 Warmup Convergence Information,THERMAL ZONE 101,RunPeriod: RUN PERIOD 1,8.3914346990E-002,0.1091395227,Pass,Pass,0.2704849590,1.0068442512,Pass,Pass
 Warmup Convergence Information,THERMAL ZONE 23,RunPeriod: RUN PERIOD 1,1.4863556516E-003,1.1772892614E-003,Pass,Pass,2.6284452033E-002,1.9520666035E-002,Pass,Pass
 Warmup Convergence Information,THERMAL ZONE 48,RunPeriod: RUN PERIOD 1,1.2551117844E-003,1.0166815104E-003,Pass,Pass,0.2448045714,0.9247020106,Pass,Pass
 Warmup Convergence Information,THERMAL ZONE 52,RunPeriod: RUN PERIOD 1,8.4087195046E-002,0.1090223600,Pass,Pass,0.2419437409,0.8702619660,Pass,Pass
 Warmup Convergence Information,THERMAL ZONE 113,RunPeriod: RUN PERIOD 1,8.3959039591E-002,0.1085231454,Pass,Pass,0.2428326016,0.9345857695,Pass,Pass
 Warmup Convergence Information,THERMAL ZONE 31,RunPeriod: RUN PERIOD 1,1.2310129696E-003,9.2907693309E-004,Pass,Pass,0.3068528060,1.3019312108,Pass,Pass
 Warmup Convergence Information,THERMAL ZONE 34,RunPeriod: RUN PERIOD 1,1.2919383701E-003,1.0377030751E-003,Pass,Pass,2.7189742143E-002,1.9534167125E-002,Pass,Pass
 Warmup Convergence Information,THERMAL ZONE 53,RunPeriod: RUN PERIOD 1,1.3554945083E-003,1.0591762318E-003,Pass,Pass,0.1832697068,0.3882406478,Pass,Pass
 Warmup Convergence Information,THERMAL ZONE 36,RunPeriod: RUN PERIOD 1,8.2865009577E-002,0.1077210183,Pass,Pass,0.4387142445,2.6361129576,Pass,Pass
 Warmup Convergence Information,THERMAL ZONE 108,RunPeriod: RUN PERIOD 1,1.3672128712E-003,9.8147340461E-004,Pass,Pass,0.2100120006,0.6760770054,Pass,Pass
 Warmup Convergence Information,THERMAL ZONE 56,RunPeriod: RUN PERIOD 1,1.1672257851E-003,9.9068904310E-004,Pass,Pass,0.2191453819,0.7517621666,Pass,Pass
 Warmup Convergence Information,THERMAL ZONE 45,RunPeriod: RUN PERIOD 1,1.1924558927E-003,8.7961535147E-004,Pass,Pass,0.2139254978,0.6915963210,Pass,Pass
 Warmup Convergence Information,THERMAL ZONE 105,RunPeriod: RUN PERIOD 1,8.6837403960E-004,2.8318898209E-003,Pass,Pass,0.4018034376,2.2053699971,Pass,Pass
 Warmup Convergence Information,THERMAL ZONE 62,RunPeriod: RUN PERIOD 1,5.5539523711E-004,1.6732367126E-003,Pass,Pass,0.2182021844,0.4923362687,Pass,Pass
 Warmup Convergence Information,THERMAL ZONE 81,RunPeriod: RUN PERIOD 1,1.4040270793E-003,1.0621540078E-003,Pass,Pass,0.6655138597,4.1623145098,Pass,Pass
 Warmup Convergence Information,THERMAL ZONE 7,RunPeriod: RUN PERIOD 1,1.4578641541E-003,1.0437143266E-003,Pass,Pass,0.1795810649,0.3659570164,Pass,Pass
 Warmup Convergence Information,THERMAL ZONE 3,RunPeriod: RUN PERIOD 1,7.9351597608E-004,2.4961105562E-003,Pass,Pass,0.3998088589,1.8194933930,Pass,Pass
 Warmup Convergence Information,THERMAL ZONE 5,RunPeriod: RUN PERIOD 1,8.4028325974E-002,0.1081924683,Pass,Pass,0.2776425633,1.1718212135,Pass,Pass
 Warmup Convergence Information,THERMAL ZONE 61,RunPeriod: RUN PERIOD 1,9.3964134676E-004,3.0470873937E-003,Pass,Pass,0.7199670393,5.2227038956,Pass,Pass
 Warmup Convergence Information,THERMAL ZONE 11,RunPeriod: RUN PERIOD 1,8.5695877331E-004,2.6582892216E-003,Pass,Pass,0.3195206712,1.2856490246,Pass,Pass
 Warmup Convergence Information,THERMAL ZONE 70,RunPeriod: RUN PERIOD 1,1.6001193244E-003,1.1525336130E-003,Pass,Pass,0.2059483706,0.4946844364,Pass,Pass
 Warmup Convergence Information,THERMAL ZONE 68,RunPeriod: RUN PERIOD 1,1.0243424713E-003,3.4088258279E-003,Pass,Pass,0.4717096321,2.2838678809,Pass,Pass
 Warmup Convergence Information,THERMAL ZONE 87,RunPeriod: RUN PERIOD 1,6.5396933329E-004,2.1305986086E-003,Pass,Pass,0.2349243140,0.5851621911,Pass,Pass
 Warmup Convergence Information,THERMAL ZONE 41,RunPeriod: RUN PERIOD 1,1.1113623302E-003,7.4533275240E-004,Pass,Pass,0.2128789655,0.6988384665,Pass,Pass
 Warmup Convergence Information,THERMAL ZONE 100,RunPeriod: RUN PERIOD 1,1.3163769058E-003,9.6725386763E-004,Pass,Pass,0.2272481261,0.8171538722,Pass,Pass
 Warmup Convergence Information,THERMAL ZONE 96,RunPeriod: RUN PERIOD 1,1.4766931311E-003,1.1478145568E-003,Pass,Pass,0.4724205006,3.0081351269,Pass,Pass
 Warmup Convergence Information,THERMAL ZONE 40,RunPeriod: RUN PERIOD 1,1.1444938503E-003,1.0964197990E-003,Pass,Pass,0.2576881245,1.0005091976,Pass,Pass
 Warmup Convergence Information,THERMAL ZONE 14,RunPeriod: RUN PERIOD 1,1.5730603623E-003,1.0553014025E-003,Pass,Pass,0.7716859291,5.1917465783,Pass,Pass
 Warmup Convergence Information,THERMAL ZONE 29,RunPeriod: RUN PERIOD 1,1.3711999391E-003,1.0655322153E-003,Pass,Pass,2.7098838780E-002,1.9833564499E-002,Pass,Pass
 Warmup Convergence Information,THERMAL ZONE 24,RunPeriod: RUN PERIOD 1,1.5048480127E-003,1.0902487966E-003,Pass,Pass,0.2114270452,0.5830795092,Pass,Pass
 Warmup Convergence Information,THERMAL ZONE 25,RunPeriod: RUN PERIOD 1,1.3533375006E-003,1.0431344706E-003,Pass,Pass,0.2588603940,0.9846184196,Pass,Pass
 Warmup Convergence Information,THERMAL ZONE 85,RunPeriod: RUN PERIOD 1,1.2982615994E-003,1.0195312333E-003,Pass,Pass,2.7173483916E-002,1.9765545913E-002,Pass,Pass
 Warmup Convergence Information,THERMAL ZONE 2,RunPeriod: RUN PERIOD 1,8.3944469948E-002,0.1081652530,Pass,Pass,0.2955494116,1.2468396815,Pass,Pass
 Warmup Convergence Information,THERMAL ZONE 97,RunPeriod: RUN PERIOD 1,1.2285014928E-003,8.6530311681E-004,Pass,Pass,0.2218987539,0.7694374937,Pass,Pass
 Warmup Convergence Information,THERMAL ZONE 27,RunPeriod: RUN PERIOD 1,8.4049774822E-002,0.1090054941,Pass,Pass,0.2610043330,0.9812254926,Pass,Pass
 Warmup Convergence Information,THERMAL ZONE 86,RunPeriod: RUN PERIOD 1,1.4927863706E-003,1.0834599841E-003,Pass,Pass,2.7329803860E-002,2.0276265432E-002,Pass,Pass
 Warmup Convergence Information,THERMAL ZONE 89,RunPeriod: RUN PERIOD 1,1.3859381598E-003,9.9435873761E-004,Pass,Pass,2.7016723218E-002,2.0072229844E-002,Pass,Pass
 Warmup Convergence Information,THERMAL ZONE 111,RunPeriod: RUN PERIOD 1,2.3785323832E-004,1.7502771357E-004,Pass,Pass,0.2259706856,0.5610128307,Pass,Pass
 Warmup Convergence Information,THERMAL ZONE 78,RunPeriod: RUN PERIOD 1,8.0395465974E-002,0.1074380832,Pass,Pass,0.2761607695,1.1273951393,Pass,Pass
 Warmup Convergence Information,THERMAL ZONE 82,RunPeriod: RUN PERIOD 1,8.3808921003E-002,0.1078967509,Pass,Pass,0.3831818873,1.8103859361,Pass,Pass
 Warmup Convergence Information,THERMAL ZONE 21,RunPeriod: RUN PERIOD 1,8.2937248885E-002,0.1079253120,Pass,Pass,0.4734837807,2.7337838240,Pass,Pass
 Warmup Convergence Information,THERMAL ZONE 22,RunPeriod: RUN PERIOD 1,8.3458519065E-002,0.1079613429,Pass,Pass,0.6621964896,3.9361043184,Pass,Pass
 Warmup Convergence Information,THERMAL ZONE 35,RunPeriod: RUN PERIOD 1,1.5694803069E-003,1.2473277256E-003,Pass,Pass,2.6773356650E-002,1.9933720323E-002,Pass,Pass
 Warmup Convergence Information,THERMAL ZONE 94,RunPeriod: RUN PERIOD 1,8.2232187585E-002,0.1075288078,Pass,Pass,88.3731052953,859.8222652642,Pass,Pass
 Warmup Convergence Information,THERMAL ZONE 109,RunPeriod: RUN PERIOD 1,1.2613835185E-003,8.8831373104E-004,Pass,Pass,4.0775556504,38.0973692732,Pass,Pass
 Warmup Convergence Information,THERMAL ZONE 104,RunPeriod: RUN PERIOD 1,2.0830776430E-004,1.6514760346E-004,Pass,Pass,0.2618896910,0.8608707577,Pass,Pass
 Warmup Convergence Information,THERMAL ZONE 112,RunPeriod: RUN PERIOD 1,1.3832562436E-003,1.0132663029E-003,Pass,Pass,0.2102484134,0.5370907242,Pass,Pass
 Warmup Convergence Information,THERMAL ZONE 107,RunPeriod: RUN PERIOD 1,8.4017209619E-002,0.1083296752,Pass,Pass,0.2707234450,1.1718419982,Pass,Pass
 Warmup Convergence Information,THERMAL ZONE 54,RunPeriod: RUN PERIOD 1,1.4462694389E-003,9.3899086385E-004,Pass,Pass,2.6559514888E-002,1.9830647853E-002,Pass,Pass
 Warmup Convergence Information,THERMAL ZONE 99,RunPeriod: RUN PERIOD 1,1.3645030229E-003,9.6087992594E-004,Pass,Pass,2.7313623315E-002,2.0113184814E-002,Pass,Pass
 Warmup Convergence Information,THERMAL ZONE 80,RunPeriod: RUN PERIOD 1,2.4974333732E-004,4.1431300316E-004,Pass,Pass,0.2325647961,0.5698749152,Pass,Pass
 Warmup Convergence Information,THERMAL ZONE 65,RunPeriod: RUN PERIOD 1,1.5130804816E-003,1.1156534848E-003,Pass,Pass,2.7197401841E-002,2.0335779938E-002,Pass,Pass
 Warmup Convergence Information,THERMAL ZONE 91,RunPeriod: RUN PERIOD 1,1.5433035245E-003,1.1817914110E-003,Pass,Pass,2.7099064787E-002,1.9899098667E-002,Pass,Pass
 Warmup Convergence Information,THERMAL ZONE 73,RunPeriod: RUN PERIOD 1,1.7316052488E-003,1.2803875068E-003,Pass,Pass,2.6863615259E-002,1.9777772031E-002,Pass,Pass
 Warmup Convergence Information,THERMAL ZONE 110,RunPeriod: RUN PERIOD 1,8.3436678453E-002,0.1078454622,Pass,Pass,0.5005280238,2.5863477048,Pass,Pass
 Warmup Convergence Information,THERMAL ZONE 114,RunPeriod: RUN PERIOD 1,1.3701144009E-003,1.1343507534E-003,Pass,Pass,2.7185215477E-002,1.9566754628E-002,Pass,Pass
 Warmup Convergence Information,THERMAL ZONE 66,RunPeriod: RUN PERIOD 1,8.3946622963E-002,0.1079732970,Pass,Pass,0.3595802778,1.7269879218,Pass,Pass
 Warmup Convergence Information,THERMAL ZONE 47,RunPeriod: RUN PERIOD 1,1.3812043042E-003,9.7635890855E-004,Pass,Pass,0.1784585143,0.3584859565,Pass,Pass
 Warmup Convergence Information,THERMAL ZONE 20,RunPeriod: RUN PERIOD 1,4.9342212736E-002,9.8699268993E-002,Pass,Pass,1.3663015496,10.7093167210,Pass,Pass
 Warmup Convergence Information,THERMAL ZONE 74,RunPeriod: RUN PERIOD 1,7.6432827016E-004,2.3524778208E-003,Pass,Pass,0.4112997216,1.9546956528,Pass,Pass
 Warmup Convergence Information,THERMAL ZONE 58,RunPeriod: RUN PERIOD 1,1.0765600313E-003,3.4869907360E-003,Pass,Pass,0.4436137176,2.1611941080,Pass,Pass
 Warmup Convergence Information,THERMAL ZONE 12,RunPeriod: RUN PERIOD 1,1.4650308823E-003,1.1942080147E-003,Pass,Pass,2.6863901303E-002,1.9759854605E-002,Pass,Pass
 Warmup Convergence Information,THERMAL ZONE 16,RunPeriod: RUN PERIOD 1,8.4100988900E-002,0.1095885231,Pass,Pass,0.2317973250,0.7661169122,Pass,Pass
 Warmup Convergence Information,THERMAL ZONE 15,RunPeriod: RUN PERIOD 1,1.4117993157E-003,1.0606916377E-003,Pass,Pass,0.2390620281,0.7731383433,Pass,Pass
 Warmup Convergence Information,THERMAL ZONE 115,RunPeriod: RUN PERIOD 1,1.5014000518E-003,1.0617324934E-003,Pass,Pass,0.2385970876,0.7695560531,Pass,Pass
 Warmup Convergence Information,THERMAL ZONE 79,RunPeriod: RUN PERIOD 1,1.4174179934E-003,1.0416248148E-003,Pass,Pass,0.1939207239,0.4458007926,Pass,Pass
 Warmup Convergence Information,THERMAL ZONE 60,RunPeriod: RUN PERIOD 1,5.3932936101E-004,3.8101565900E-004,Pass,Pass,6.7876111363E-002,8.0790531716E-002,Pass,Pass
 Warmup Convergence Information,THERMAL ZONE 63,RunPeriod: RUN PERIOD 1,1.2787687439E-003,1.0402544532E-003,Pass,Pass,0.2115256970,0.5480213202,Pass,Pass
 Warmup Convergence Information,THERMAL ZONE 44,RunPeriod: RUN PERIOD 1,1.2911942929E-003,9.3234397802E-004,Pass,Pass,0.2624934146,1.0055778361,Pass,Pass
 Warmup Convergence Information,THERMAL ZONE 76,RunPeriod: RUN PERIOD 1,1.2374342191E-003,9.5984514575E-004,Pass,Pass,0.3017619720,1.2693914063,Pass,Pass
 Warmup Convergence Information,THERMAL ZONE 4,RunPeriod: RUN PERIOD 1,1.1904262330E-003,1.0252595378E-003,Pass,Pass,0.2129877189,0.6754470126,Pass,Pass
 Warmup Convergence Information,THERMAL ZONE 32,RunPeriod: RUN PERIOD 1,1.2788863012E-003,9.9708765498E-004,Pass,Pass,0.2137008450,0.6739419283,Pass,Pass
! <Program Control Information:Threads/Parallel Sims>, Threading Supported,Maximum Number of Threads, Env Set Threads (OMP_NUM_THREADS), EP Env Set Threads (EP_OMP_NUM_THREADS), IDF Set Threads, Number of Threads Used (Interior Radiant Exchange), Number Nominal Surfaces, Number Parallel Sims
Program Control:Threads/Parallel Sims, Yes,1, Not Set, Not Set, 1, 1, 782, N/A
End of Data
