Program Version,EnergyPlus-Linux-OMP-32 7.2.0.006, YMD=2013.01.10 16:12
! This file shows details about the branches, nodes, and other
! elements of the flow connections.
! This file is intended for use in "debugging" potential problems
! that may also be detected by the program, but may be more easily
! identified by "eye".
! This file is also intended to support software which draws a
! schematic diagram of the HVAC system.
! ===============================================================
! #Nodes,<Number of Unique Nodes>
 #Nodes,830                 
! <Node>,<NodeNumber>,<Node Name>,<Node Fluid Type>,<# Times Node Referenced After Definition>
 Node,1,NODE 217,Air,4
 Node,2,NODE 367,Air,4
 Node,3,NODE 562,Air,4
 Node,4,NODE 527,Air,4
 Node,5,NODE 342,Air,4
 Node,6,NODE 262,Air,4
 Node,7,NODE 497,Air,4
 Node,8,NODE 637,Air,4
 Node,9,NODE 662,Air,4
 Node,10,NODE 182,Air,4
 Node,11,NODE 477,Air,4
 Node,12,NODE 352,Air,4
 Node,13,NODE 317,Air,4
 Node,14,NODE 592,Air,4
 Node,15,NODE 652,Air,4
 Node,16,NODE 272,Air,4
 Node,17,NODE 452,Air,4
 Node,18,NODE 582,Air,4
 Node,19,NODE 492,Air,4
 Node,20,NODE 407,Air,4
 Node,21,NODE 467,Air,4
 Node,22,NODE 547,Air,4
 Node,23,NODE 572,Air,4
 Node,24,NODE 482,Air,4
 Node,25,NODE 632,Air,4
 Node,26,NODE 707,Air,4
 Node,27,NODE 642,Air,4
 Node,28,NODE 257,Air,4
 Node,29,NODE 322,Air,4
 Node,30,NODE 697,Air,4
 Node,31,NODE 447,Air,4
 Node,32,NODE 427,Air,4
 Node,33,NODE 232,Air,4
 Node,34,NODE 567,Air,4
 Node,35,NODE 267,Air,4
 Node,36,NODE 442,Air,4
 Node,37,NODE 532,Air,4
 Node,38,NODE 297,Air,4
 Node,39,NODE 687,Air,4
 Node,40,NODE 607,Air,4
 Node,41,NODE 617,Air,4
 Node,42,NODE 517,Air,4
 Node,43,NODE 287,Air,4
 Node,44,NODE 222,Air,4
 Node,45,NODE 612,Air,4
 Node,46,NODE 432,Air,4
 Node,47,NODE 202,Air,4
 Node,48,NODE 227,Air,4
 Node,49,NODE 627,Air,4
 Node,50,NODE 647,Air,4
 Node,51,NODE 502,Air,4
 Node,52,NODE 622,Air,4
 Node,53,NODE 362,Air,4
 Node,54,NODE 417,Air,4
 Node,55,NODE 587,Air,4
 Node,56,NODE 672,Air,4
 Node,57,NODE 402,Air,4
 Node,58,NODE 162,Air,4
 Node,59,NODE 147,Air,4
 Node,60,NODE 422,Air,4
 Node,61,NODE 167,Air,4
 Node,62,NODE 157,Air,4
 Node,63,NODE 212,Air,4
 Node,64,NODE 522,Air,4
 Node,65,NODE 437,Air,4
 Node,66,NODE 382,Air,4
 Node,67,NODE 462,Air,4
 Node,68,NODE 357,Air,4
 Node,69,NODE 472,Air,4
 Node,70,NODE 412,Air,4
 Node,71,NODE 602,Air,4
 Node,72,NODE 692,Air,4
 Node,73,NODE 487,Air,4
 Node,74,NODE 152,Air,4
 Node,75,NODE 177,Air,4
 Node,76,NODE 507,Air,4
 Node,77,NODE 682,Air,4
 Node,78,NODE 302,Air,4
 Node,79,NODE 542,Air,4
 Node,80,NODE 237,Air,4
 Node,81,NODE 392,Air,4
 Node,82,NODE 387,Air,4
 Node,83,NODE 337,Air,4
 Node,84,NODE 242,Air,4
 Node,85,NODE 537,Air,4
 Node,86,NODE 187,Air,4
 Node,87,NODE 142,Air,4
 Node,88,NODE 657,Air,4
 Node,89,NODE 397,Air,4
 Node,90,NODE 347,Air,4
 Node,91,NODE 252,Air,4
 Node,92,NODE 207,Air,4
 Node,93,NODE 120,Air,4
 Node,94,NODE 307,Air,4
 Node,95,NODE 457,Air,4
 Node,96,NODE 327,Air,4
 Node,97,NODE 197,Air,4
 Node,98,NODE 192,Air,4
 Node,99,NODE 282,Air,4
 Node,100,NODE 702,Air,4
 Node,101,NODE 557,Air,4
 Node,102,NODE 667,Air,4
 Node,103,NODE 312,Air,4
 Node,104,NODE 677,Air,4
 Node,105,NODE 332,Air,4
 Node,106,NODE 372,Air,4
 Node,107,NODE 377,Air,4
 Node,108,NODE 597,Air,4
 Node,109,NODE 247,Air,4
 Node,110,NODE 277,Air,4
 Node,111,NODE 577,Air,4
 Node,112,NODE 292,Air,4
 Node,113,NODE 552,Air,4
 Node,114,NODE 512,Air,4
 Node,115,NODE 172,Air,4
 Node,116,NODE 116,Air,3
 Node,117,NODE 123,Air,6
 Node,118,NODE 124,Air,6
 Node,119,NODE 125,Air,8
 Node,120,NODE 117,Air,9
 Node,121,NODE 126,Water,2
 Node,122,NODE 132,Water,1
 Node,123,NODE 128,Water,1
 Node,124,NODE 133,Water,1
 Node,125,NODE 134,Water,1
 Node,126,NODE 135,Water,1
 Node,127,NODE 136,Water,1
 Node,128,NODE 127,Water,4
 Node,129,NODE 129,Water,2
 Node,130,PLANT LOOP 1 DEMAND INLET PIPE NODE,Water,1
 Node,131,NODE 131,Water,2
 Node,132,NODE 137,Water,1
 Node,133,NODE 140,Water,1
 Node,134,NODE 141,Water,1
 Node,135,NODE 145,Water,1
 Node,136,NODE 146,Water,1
 Node,137,NODE 150,Water,1
 Node,138,NODE 151,Water,1
 Node,139,NODE 155,Water,1
 Node,140,NODE 156,Water,1
 Node,141,NODE 160,Water,1
 Node,142,NODE 161,Water,1
 Node,143,NODE 165,Water,1
 Node,144,NODE 166,Water,1
 Node,145,NODE 170,Water,1
 Node,146,NODE 171,Water,1
 Node,147,NODE 175,Water,1
 Node,148,NODE 176,Water,1
 Node,149,NODE 180,Water,1
 Node,150,NODE 181,Water,1
 Node,151,NODE 185,Water,1
 Node,152,NODE 186,Water,1
 Node,153,NODE 190,Water,1
 Node,154,NODE 191,Water,1
 Node,155,NODE 195,Water,1
 Node,156,NODE 196,Water,1
 Node,157,NODE 200,Water,1
 Node,158,NODE 201,Water,1
 Node,159,NODE 205,Water,1
 Node,160,NODE 206,Water,1
 Node,161,NODE 210,Water,1
 Node,162,NODE 211,Water,1
 Node,163,NODE 215,Water,1
 Node,164,NODE 216,Water,1
 Node,165,NODE 220,Water,1
 Node,166,NODE 221,Water,1
 Node,167,NODE 225,Water,1
 Node,168,NODE 226,Water,1
 Node,169,NODE 230,Water,1
 Node,170,NODE 231,Water,1
 Node,171,NODE 235,Water,1
 Node,172,NODE 236,Water,1
 Node,173,NODE 240,Water,1
 Node,174,NODE 241,Water,1
 Node,175,NODE 245,Water,1
 Node,176,NODE 246,Water,1
 Node,177,NODE 250,Water,1
 Node,178,NODE 251,Water,1
 Node,179,NODE 255,Water,1
 Node,180,NODE 256,Water,1
 Node,181,NODE 260,Water,1
 Node,182,NODE 261,Water,1
 Node,183,NODE 265,Water,1
 Node,184,NODE 266,Water,1
 Node,185,NODE 270,Water,1
 Node,186,NODE 271,Water,1
 Node,187,NODE 275,Water,1
 Node,188,NODE 276,Water,1
 Node,189,NODE 280,Water,1
 Node,190,NODE 281,Water,1
 Node,191,NODE 285,Water,1
 Node,192,NODE 286,Water,1
 Node,193,NODE 290,Water,1
 Node,194,NODE 291,Water,1
 Node,195,NODE 295,Water,1
 Node,196,NODE 296,Water,1
 Node,197,NODE 300,Water,1
 Node,198,NODE 301,Water,1
 Node,199,NODE 305,Water,1
 Node,200,NODE 306,Water,1
 Node,201,NODE 310,Water,1
 Node,202,NODE 311,Water,1
 Node,203,NODE 315,Water,1
 Node,204,NODE 316,Water,1
 Node,205,NODE 320,Water,1
 Node,206,NODE 321,Water,1
 Node,207,NODE 325,Water,1
 Node,208,NODE 326,Water,1
 Node,209,NODE 330,Water,1
 Node,210,NODE 331,Water,1
 Node,211,NODE 335,Water,1
 Node,212,NODE 336,Water,1
 Node,213,NODE 340,Water,1
 Node,214,NODE 341,Water,1
 Node,215,NODE 345,Water,1
 Node,216,NODE 346,Water,1
 Node,217,NODE 350,Water,1
 Node,218,NODE 351,Water,1
 Node,219,NODE 355,Water,1
 Node,220,NODE 356,Water,1
 Node,221,NODE 360,Water,1
 Node,222,NODE 361,Water,1
 Node,223,NODE 365,Water,1
 Node,224,NODE 366,Water,1
 Node,225,NODE 370,Water,1
 Node,226,NODE 371,Water,1
 Node,227,NODE 375,Water,1
 Node,228,NODE 376,Water,1
 Node,229,NODE 380,Water,1
 Node,230,NODE 381,Water,1
 Node,231,NODE 385,Water,1
 Node,232,NODE 386,Water,1
 Node,233,NODE 390,Water,1
 Node,234,NODE 391,Water,1
 Node,235,NODE 395,Water,1
 Node,236,NODE 396,Water,1
 Node,237,NODE 400,Water,1
 Node,238,NODE 401,Water,1
 Node,239,NODE 405,Water,1
 Node,240,NODE 406,Water,1
 Node,241,NODE 410,Water,1
 Node,242,NODE 411,Water,1
 Node,243,NODE 415,Water,1
 Node,244,NODE 416,Water,1
 Node,245,NODE 420,Water,1
 Node,246,NODE 421,Water,1
 Node,247,NODE 425,Water,1
 Node,248,NODE 426,Water,1
 Node,249,NODE 430,Water,1
 Node,250,NODE 431,Water,1
 Node,251,NODE 435,Water,1
 Node,252,NODE 436,Water,1
 Node,253,NODE 440,Water,1
 Node,254,NODE 441,Water,1
 Node,255,NODE 445,Water,1
 Node,256,NODE 446,Water,1
 Node,257,NODE 450,Water,1
 Node,258,NODE 451,Water,1
 Node,259,NODE 455,Water,1
 Node,260,NODE 456,Water,1
 Node,261,NODE 460,Water,1
 Node,262,NODE 461,Water,1
 Node,263,NODE 465,Water,1
 Node,264,NODE 466,Water,1
 Node,265,NODE 470,Water,1
 Node,266,NODE 471,Water,1
 Node,267,NODE 475,Water,1
 Node,268,NODE 476,Water,1
 Node,269,NODE 480,Water,1
 Node,270,NODE 481,Water,1
 Node,271,NODE 485,Water,1
 Node,272,NODE 486,Water,1
 Node,273,NODE 490,Water,1
 Node,274,NODE 491,Water,1
 Node,275,NODE 495,Water,1
 Node,276,NODE 496,Water,1
 Node,277,NODE 500,Water,1
 Node,278,NODE 501,Water,1
 Node,279,NODE 505,Water,1
 Node,280,NODE 506,Water,1
 Node,281,NODE 510,Water,1
 Node,282,NODE 511,Water,1
 Node,283,NODE 515,Water,1
 Node,284,NODE 516,Water,1
 Node,285,NODE 520,Water,1
 Node,286,NODE 521,Water,1
 Node,287,NODE 525,Water,1
 Node,288,NODE 526,Water,1
 Node,289,NODE 530,Water,1
 Node,290,NODE 531,Water,1
 Node,291,NODE 535,Water,1
 Node,292,NODE 536,Water,1
 Node,293,NODE 540,Water,1
 Node,294,NODE 541,Water,1
 Node,295,NODE 545,Water,1
 Node,296,NODE 546,Water,1
 Node,297,NODE 550,Water,1
 Node,298,NODE 551,Water,1
 Node,299,NODE 555,Water,1
 Node,300,NODE 556,Water,1
 Node,301,NODE 560,Water,1
 Node,302,NODE 561,Water,1
 Node,303,NODE 565,Water,1
 Node,304,NODE 566,Water,1
 Node,305,NODE 570,Water,1
 Node,306,NODE 571,Water,1
 Node,307,NODE 575,Water,1
 Node,308,NODE 576,Water,1
 Node,309,NODE 580,Water,1
 Node,310,NODE 581,Water,1
 Node,311,NODE 585,Water,1
 Node,312,NODE 586,Water,1
 Node,313,NODE 590,Water,1
 Node,314,NODE 591,Water,1
 Node,315,NODE 595,Water,1
 Node,316,NODE 596,Water,1
 Node,317,NODE 600,Water,1
 Node,318,NODE 601,Water,1
 Node,319,NODE 605,Water,1
 Node,320,NODE 606,Water,1
 Node,321,NODE 610,Water,1
 Node,322,NODE 611,Water,1
 Node,323,NODE 615,Water,1
 Node,324,NODE 616,Water,1
 Node,325,NODE 620,Water,1
 Node,326,NODE 621,Water,1
 Node,327,NODE 625,Water,1
 Node,328,NODE 626,Water,1
 Node,329,NODE 630,Water,1
 Node,330,NODE 631,Water,1
 Node,331,NODE 635,Water,1
 Node,332,NODE 636,Water,1
 Node,333,NODE 640,Water,1
 Node,334,NODE 641,Water,1
 Node,335,NODE 645,Water,1
 Node,336,NODE 646,Water,1
 Node,337,NODE 650,Water,1
 Node,338,NODE 651,Water,1
 Node,339,NODE 655,Water,1
 Node,340,NODE 656,Water,1
 Node,341,NODE 660,Water,1
 Node,342,NODE 661,Water,1
 Node,343,NODE 665,Water,1
 Node,344,NODE 666,Water,1
 Node,345,NODE 670,Water,1
 Node,346,NODE 671,Water,1
 Node,347,NODE 675,Water,1
 Node,348,NODE 676,Water,1
 Node,349,NODE 680,Water,1
 Node,350,NODE 681,Water,1
 Node,351,NODE 685,Water,1
 Node,352,NODE 686,Water,1
 Node,353,NODE 690,Water,1
 Node,354,NODE 691,Water,1
 Node,355,NODE 695,Water,1
 Node,356,NODE 696,Water,1
 Node,357,NODE 700,Water,1
 Node,358,NODE 701,Water,1
 Node,359,NODE 705,Water,1
 Node,360,NODE 706,Water,1
 Node,361,NODE 710,Water,1
 Node,362,NODE 711,Water,1
 Node,363,PLANT LOOP 1 DEMAND BYPASS PIPE INLET NODE,Water,1
 Node,364,PLANT LOOP 1 DEMAND BYPASS PIPE OUTLET NODE,Water,1
 Node,365,PLANT LOOP 1 DEMAND OUTLET PIPE NODE,Water,1
 Node,366,NODE 130,Water,2
 Node,367,NODE 121,Air,2
 Node,368,NODE 43,Air,0
 Node,369,NODE 218,Air,1
 Node,370,NODE 72,Air,0
 Node,371,NODE 368,Air,1
 Node,372,NODE 49,Air,0
 Node,373,NODE 563,Air,1
 Node,374,NODE 38,Air,0
 Node,375,NODE 528,Air,1
 Node,376,NODE 37,Air,0
 Node,377,NODE 343,Air,1
 Node,378,NODE 83,Air,0
 Node,379,NODE 263,Air,1
 Node,380,NODE 95,Air,0
 Node,381,NODE 498,Air,1
 Node,382,NODE 9,Air,0
 Node,383,NODE 638,Air,1
 Node,384,NODE 17,Air,0
 Node,385,NODE 663,Air,1
 Node,386,NODE 67,Air,0
 Node,387,NODE 183,Air,1
 Node,388,NODE 50,Air,0
 Node,389,NODE 478,Air,1
 Node,390,NODE 18,Air,0
 Node,391,NODE 353,Air,1
 Node,392,NODE 6,Air,0
 Node,393,NODE 318,Air,1
 Node,394,NODE 39,Air,0
 Node,395,NODE 593,Air,1
 Node,396,NODE 33,Air,0
 Node,397,NODE 653,Air,1
 Node,398,NODE 13,Air,0
 Node,399,NODE 273,Air,1
 Node,400,NODE 84,Air,0
 Node,401,NODE 453,Air,1
 Node,402,NODE 71,Air,0
 Node,403,NODE 583,Air,1
 Node,404,NODE 103,Air,0
 Node,405,NODE 493,Air,1
 Node,406,NODE 75,Air,0
 Node,407,NODE 408,Air,1
 Node,408,NODE 77,Air,0
 Node,409,NODE 468,Air,1
 Node,410,NODE 92,Air,0
 Node,411,NODE 548,Air,1
 Node,412,NODE 42,Air,0
 Node,413,NODE 573,Air,1
 Node,414,NODE 102,Air,0
 Node,415,NODE 483,Air,1
 Node,416,NODE 8,Air,0
 Node,417,NODE 633,Air,1
 Node,418,NODE 55,Air,0
 Node,419,NODE 708,Air,1
 Node,420,NODE 46,Air,0
 Node,421,NODE 643,Air,1
 Node,422,NODE 64,Air,0
 Node,423,NODE 258,Air,1
 Node,424,NODE 69,Air,0
 Node,425,NODE 323,Air,1
 Node,426,NODE 10,Air,0
 Node,427,NODE 698,Air,1
 Node,428,NODE 59,Air,0
 Node,429,NODE 448,Air,1
 Node,430,NODE 93,Air,0
 Node,431,NODE 428,Air,1
 Node,432,NODE 98,Air,0
 Node,433,NODE 233,Air,1
 Node,434,NODE 57,Air,0
 Node,435,NODE 568,Air,1
 Node,436,NODE 51,Air,0
 Node,437,NODE 268,Air,1
 Node,438,NODE 1,Air,0
 Node,439,NODE 443,Air,1
 Node,440,NODE 26,Air,0
 Node,441,NODE 533,Air,1
 Node,442,NODE 30,Air,0
 Node,443,NODE 298,Air,1
 Node,444,NODE 19,Air,0
 Node,445,NODE 688,Air,1
 Node,446,NODE 106,Air,0
 Node,447,NODE 608,Air,1
 Node,448,NODE 88,Air,0
 Node,449,NODE 618,Air,1
 Node,450,NODE 28,Air,0
 Node,451,NODE 518,Air,1
 Node,452,NODE 90,Air,0
 Node,453,NODE 288,Air,1
 Node,454,NODE 101,Air,0
 Node,455,NODE 223,Air,1
 Node,456,NODE 23,Air,0
 Node,457,NODE 613,Air,1
 Node,458,NODE 48,Air,0
 Node,459,NODE 433,Air,1
 Node,460,NODE 52,Air,0
 Node,461,NODE 203,Air,1
 Node,462,NODE 113,Air,0
 Node,463,NODE 228,Air,1
 Node,464,NODE 31,Air,0
 Node,465,NODE 628,Air,1
 Node,466,NODE 34,Air,0
 Node,467,NODE 648,Air,1
 Node,468,NODE 53,Air,0
 Node,469,NODE 503,Air,1
 Node,470,NODE 36,Air,0
 Node,471,NODE 623,Air,1
 Node,472,NODE 108,Air,0
 Node,473,NODE 363,Air,1
 Node,474,NODE 56,Air,0
 Node,475,NODE 418,Air,1
 Node,476,NODE 45,Air,0
 Node,477,NODE 588,Air,1
 Node,478,NODE 105,Air,0
 Node,479,NODE 673,Air,1
 Node,480,NODE 62,Air,0
 Node,481,NODE 403,Air,1
 Node,482,NODE 81,Air,0
 Node,483,NODE 163,Air,1
 Node,484,NODE 7,Air,0
 Node,485,NODE 148,Air,1
 Node,486,NODE 3,Air,0
 Node,487,NODE 423,Air,1
 Node,488,NODE 5,Air,0
 Node,489,NODE 168,Air,1
 Node,490,NODE 61,Air,0
 Node,491,NODE 158,Air,1
 Node,492,NODE 11,Air,0
 Node,493,NODE 213,Air,1
 Node,494,NODE 70,Air,0
 Node,495,NODE 523,Air,1
 Node,496,NODE 68,Air,0
 Node,497,NODE 438,Air,1
 Node,498,NODE 87,Air,0
 Node,499,NODE 383,Air,1
 Node,500,NODE 41,Air,0
 Node,501,NODE 463,Air,1
 Node,502,NODE 100,Air,0
 Node,503,NODE 358,Air,1
 Node,504,NODE 96,Air,0
 Node,505,NODE 473,Air,1
 Node,506,NODE 40,Air,0
 Node,507,NODE 413,Air,1
 Node,508,NODE 14,Air,0
 Node,509,NODE 603,Air,1
 Node,510,NODE 29,Air,0
 Node,511,NODE 693,Air,1
 Node,512,NODE 24,Air,0
 Node,513,NODE 488,Air,1
 Node,514,NODE 25,Air,0
 Node,515,NODE 153,Air,1
 Node,516,NODE 85,Air,0
 Node,517,NODE 178,Air,1
 Node,518,NODE 2,Air,0
 Node,519,NODE 508,Air,1
 Node,520,NODE 97,Air,0
 Node,521,NODE 683,Air,1
 Node,522,NODE 27,Air,0
 Node,523,NODE 303,Air,1
 Node,524,NODE 86,Air,0
 Node,525,NODE 543,Air,1
 Node,526,NODE 89,Air,0
 Node,527,NODE 238,Air,1
 Node,528,NODE 111,Air,0
 Node,529,NODE 393,Air,1
 Node,530,NODE 78,Air,0
 Node,531,NODE 388,Air,1
 Node,532,NODE 82,Air,0
 Node,533,NODE 338,Air,1
 Node,534,NODE 21,Air,0
 Node,535,NODE 243,Air,1
 Node,536,NODE 22,Air,0
 Node,537,NODE 538,Air,1
 Node,538,NODE 35,Air,0
 Node,539,NODE 188,Air,1
 Node,540,NODE 94,Air,0
 Node,541,NODE 143,Air,1
 Node,542,NODE 109,Air,0
 Node,543,NODE 658,Air,1
 Node,544,NODE 104,Air,0
 Node,545,NODE 398,Air,1
 Node,546,NODE 112,Air,0
 Node,547,NODE 348,Air,1
 Node,548,NODE 107,Air,0
 Node,549,NODE 253,Air,1
 Node,550,NODE 54,Air,0
 Node,551,NODE 208,Air,1
 Node,552,NODE 99,Air,0
 Node,553,NODE 138,Air,1
 Node,554,NODE 80,Air,0
 Node,555,NODE 308,Air,1
 Node,556,NODE 65,Air,0
 Node,557,NODE 458,Air,1
 Node,558,NODE 91,Air,0
 Node,559,NODE 328,Air,1
 Node,560,NODE 73,Air,0
 Node,561,NODE 198,Air,1
 Node,562,NODE 110,Air,0
 Node,563,NODE 193,Air,1
 Node,564,NODE 114,Air,0
 Node,565,NODE 283,Air,1
 Node,566,NODE 66,Air,0
 Node,567,NODE 703,Air,1
 Node,568,NODE 47,Air,0
 Node,569,NODE 558,Air,1
 Node,570,NODE 20,Air,0
 Node,571,NODE 668,Air,1
 Node,572,NODE 74,Air,0
 Node,573,NODE 313,Air,1
 Node,574,NODE 58,Air,0
 Node,575,NODE 678,Air,1
 Node,576,NODE 12,Air,0
 Node,577,NODE 333,Air,1
 Node,578,NODE 16,Air,0
 Node,579,NODE 373,Air,1
 Node,580,NODE 15,Air,0
 Node,581,NODE 378,Air,1
 Node,582,NODE 115,Air,0
 Node,583,NODE 598,Air,1
 Node,584,NODE 79,Air,0
 Node,585,NODE 248,Air,1
 Node,586,NODE 60,Air,0
 Node,587,NODE 278,Air,1
 Node,588,NODE 63,Air,0
 Node,589,NODE 578,Air,1
 Node,590,NODE 44,Air,0
 Node,591,NODE 293,Air,1
 Node,592,NODE 76,Air,0
 Node,593,NODE 553,Air,1
 Node,594,NODE 4,Air,0
 Node,595,NODE 513,Air,1
 Node,596,NODE 32,Air,0
 Node,597,NODE 173,Air,1
 Node,598,NODE 118,Air,2
 Node,599,NODE 119,Air,2
 Node,600,NODE 139,Air,1
 Node,601,NODE 144,Air,1
 Node,602,NODE 149,Air,1
 Node,603,NODE 154,Air,1
 Node,604,NODE 159,Air,1
 Node,605,NODE 164,Air,1
 Node,606,NODE 169,Air,1
 Node,607,NODE 174,Air,1
 Node,608,NODE 179,Air,1
 Node,609,NODE 184,Air,1
 Node,610,NODE 189,Air,1
 Node,611,NODE 194,Air,1
 Node,612,NODE 199,Air,1
 Node,613,NODE 204,Air,1
 Node,614,NODE 209,Air,1
 Node,615,NODE 214,Air,1
 Node,616,NODE 219,Air,1
 Node,617,NODE 224,Air,1
 Node,618,NODE 229,Air,1
 Node,619,NODE 234,Air,1
 Node,620,NODE 239,Air,1
 Node,621,NODE 244,Air,1
 Node,622,NODE 249,Air,1
 Node,623,NODE 254,Air,1
 Node,624,NODE 259,Air,1
 Node,625,NODE 264,Air,1
 Node,626,NODE 269,Air,1
 Node,627,NODE 274,Air,1
 Node,628,NODE 279,Air,1
 Node,629,NODE 284,Air,1
 Node,630,NODE 289,Air,1
 Node,631,NODE 294,Air,1
 Node,632,NODE 299,Air,1
 Node,633,NODE 304,Air,1
 Node,634,NODE 309,Air,1
 Node,635,NODE 314,Air,1
 Node,636,NODE 319,Air,1
 Node,637,NODE 324,Air,1
 Node,638,NODE 329,Air,1
 Node,639,NODE 334,Air,1
 Node,640,NODE 339,Air,1
 Node,641,NODE 344,Air,1
 Node,642,NODE 349,Air,1
 Node,643,NODE 354,Air,1
 Node,644,NODE 359,Air,1
 Node,645,NODE 364,Air,1
 Node,646,NODE 369,Air,1
 Node,647,NODE 374,Air,1
 Node,648,NODE 379,Air,1
 Node,649,NODE 384,Air,1
 Node,650,NODE 389,Air,1
 Node,651,NODE 394,Air,1
 Node,652,NODE 399,Air,1
 Node,653,NODE 404,Air,1
 Node,654,NODE 409,Air,1
 Node,655,NODE 414,Air,1
 Node,656,NODE 419,Air,1
 Node,657,NODE 424,Air,1
 Node,658,NODE 429,Air,1
 Node,659,NODE 434,Air,1
 Node,660,NODE 439,Air,1
 Node,661,NODE 444,Air,1
 Node,662,NODE 449,Air,1
 Node,663,NODE 454,Air,1
 Node,664,NODE 459,Air,1
 Node,665,NODE 464,Air,1
 Node,666,NODE 469,Air,1
 Node,667,NODE 474,Air,1
 Node,668,NODE 479,Air,1
 Node,669,NODE 484,Air,1
 Node,670,NODE 489,Air,1
 Node,671,NODE 494,Air,1
 Node,672,NODE 499,Air,1
 Node,673,NODE 504,Air,1
 Node,674,NODE 509,Air,1
 Node,675,NODE 514,Air,1
 Node,676,NODE 519,Air,1
 Node,677,NODE 524,Air,1
 Node,678,NODE 529,Air,1
 Node,679,NODE 534,Air,1
 Node,680,NODE 539,Air,1
 Node,681,NODE 544,Air,1
 Node,682,NODE 549,Air,1
 Node,683,NODE 554,Air,1
 Node,684,NODE 559,Air,1
 Node,685,NODE 564,Air,1
 Node,686,NODE 569,Air,1
 Node,687,NODE 574,Air,1
 Node,688,NODE 579,Air,1
 Node,689,NODE 584,Air,1
 Node,690,NODE 589,Air,1
 Node,691,NODE 594,Air,1
 Node,692,NODE 599,Air,1
 Node,693,NODE 604,Air,1
 Node,694,NODE 609,Air,1
 Node,695,NODE 614,Air,1
 Node,696,NODE 619,Air,1
 Node,697,NODE 624,Air,1
 Node,698,NODE 629,Air,1
 Node,699,NODE 634,Air,1
 Node,700,NODE 639,Air,1
 Node,701,NODE 644,Air,1
 Node,702,NODE 649,Air,1
 Node,703,NODE 654,Air,1
 Node,704,NODE 659,Air,1
 Node,705,NODE 664,Air,1
 Node,706,NODE 669,Air,1
 Node,707,NODE 674,Air,1
 Node,708,NODE 679,Air,1
 Node,709,NODE 684,Air,1
 Node,710,NODE 689,Air,1
 Node,711,NODE 694,Air,1
 Node,712,NODE 699,Air,1
 Node,713,NODE 704,Air,1
 Node,714,NODE 709,Air,1
 Node,715,AIR TERMINAL SINGLE DUCT VAV REHEAT 2 DAMPER OUTLET,Air,1
 Node,716,AIR TERMINAL SINGLE DUCT VAV REHEAT 3 DAMPER OUTLET,Air,1
 Node,717,AIR TERMINAL SINGLE DUCT VAV REHEAT 4 DAMPER OUTLET,Air,1
 Node,718,AIR TERMINAL SINGLE DUCT VAV REHEAT 5 DAMPER OUTLET,Air,1
 Node,719,AIR TERMINAL SINGLE DUCT VAV REHEAT 6 DAMPER OUTLET,Air,1
 Node,720,AIR TERMINAL SINGLE DUCT VAV REHEAT 7 DAMPER OUTLET,Air,1
 Node,721,AIR TERMINAL SINGLE DUCT VAV REHEAT 8 DAMPER OUTLET,Air,1
 Node,722,AIR TERMINAL SINGLE DUCT VAV REHEAT 9 DAMPER OUTLET,Air,1
 Node,723,AIR TERMINAL SINGLE DUCT VAV REHEAT 10 DAMPER OUTLET,Air,1
 Node,724,AIR TERMINAL SINGLE DUCT VAV REHEAT 11 DAMPER OUTLET,Air,1
 Node,725,AIR TERMINAL SINGLE DUCT VAV REHEAT 12 DAMPER OUTLET,Air,1
 Node,726,AIR TERMINAL SINGLE DUCT VAV REHEAT 13 DAMPER OUTLET,Air,1
 Node,727,AIR TERMINAL SINGLE DUCT VAV REHEAT 14 DAMPER OUTLET,Air,1
 Node,728,AIR TERMINAL SINGLE DUCT VAV REHEAT 15 DAMPER OUTLET,Air,1
 Node,729,AIR TERMINAL SINGLE DUCT VAV REHEAT 16 DAMPER OUTLET,Air,1
 Node,730,AIR TERMINAL SINGLE DUCT VAV REHEAT 17 DAMPER OUTLET,Air,1
 Node,731,AIR TERMINAL SINGLE DUCT VAV REHEAT 18 DAMPER OUTLET,Air,1
 Node,732,AIR TERMINAL SINGLE DUCT VAV REHEAT 19 DAMPER OUTLET,Air,1
 Node,733,AIR TERMINAL SINGLE DUCT VAV REHEAT 20 DAMPER OUTLET,Air,1
 Node,734,AIR TERMINAL SINGLE DUCT VAV REHEAT 21 DAMPER OUTLET,Air,1
 Node,735,AIR TERMINAL SINGLE DUCT VAV REHEAT 22 DAMPER OUTLET,Air,1
 Node,736,AIR TERMINAL SINGLE DUCT VAV REHEAT 23 DAMPER OUTLET,Air,1
 Node,737,AIR TERMINAL SINGLE DUCT VAV REHEAT 24 DAMPER OUTLET,Air,1
 Node,738,AIR TERMINAL SINGLE DUCT VAV REHEAT 25 DAMPER OUTLET,Air,1
 Node,739,AIR TERMINAL SINGLE DUCT VAV REHEAT 26 DAMPER OUTLET,Air,1
 Node,740,AIR TERMINAL SINGLE DUCT VAV REHEAT 27 DAMPER OUTLET,Air,1
 Node,741,AIR TERMINAL SINGLE DUCT VAV REHEAT 28 DAMPER OUTLET,Air,1
 Node,742,AIR TERMINAL SINGLE DUCT VAV REHEAT 29 DAMPER OUTLET,Air,1
 Node,743,AIR TERMINAL SINGLE DUCT VAV REHEAT 30 DAMPER OUTLET,Air,1
 Node,744,AIR TERMINAL SINGLE DUCT VAV REHEAT 31 DAMPER OUTLET,Air,1
 Node,745,AIR TERMINAL SINGLE DUCT VAV REHEAT 32 DAMPER OUTLET,Air,1
 Node,746,AIR TERMINAL SINGLE DUCT VAV REHEAT 33 DAMPER OUTLET,Air,1
 Node,747,AIR TERMINAL SINGLE DUCT VAV REHEAT 34 DAMPER OUTLET,Air,1
 Node,748,AIR TERMINAL SINGLE DUCT VAV REHEAT 35 DAMPER OUTLET,Air,1
 Node,749,AIR TERMINAL SINGLE DUCT VAV REHEAT 36 DAMPER OUTLET,Air,1
 Node,750,AIR TERMINAL SINGLE DUCT VAV REHEAT 37 DAMPER OUTLET,Air,1
 Node,751,AIR TERMINAL SINGLE DUCT VAV REHEAT 38 DAMPER OUTLET,Air,1
 Node,752,AIR TERMINAL SINGLE DUCT VAV REHEAT 39 DAMPER OUTLET,Air,1
 Node,753,AIR TERMINAL SINGLE DUCT VAV REHEAT 40 DAMPER OUTLET,Air,1
 Node,754,AIR TERMINAL SINGLE DUCT VAV REHEAT 41 DAMPER OUTLET,Air,1
 Node,755,AIR TERMINAL SINGLE DUCT VAV REHEAT 42 DAMPER OUTLET,Air,1
 Node,756,AIR TERMINAL SINGLE DUCT VAV REHEAT 43 DAMPER OUTLET,Air,1
 Node,757,AIR TERMINAL SINGLE DUCT VAV REHEAT 44 DAMPER OUTLET,Air,1
 Node,758,AIR TERMINAL SINGLE DUCT VAV REHEAT 45 DAMPER OUTLET,Air,1
 Node,759,AIR TERMINAL SINGLE DUCT VAV REHEAT 46 DAMPER OUTLET,Air,1
 Node,760,AIR TERMINAL SINGLE DUCT VAV REHEAT 47 DAMPER OUTLET,Air,1
 Node,761,AIR TERMINAL SINGLE DUCT VAV REHEAT 48 DAMPER OUTLET,Air,1
 Node,762,AIR TERMINAL SINGLE DUCT VAV REHEAT 49 DAMPER OUTLET,Air,1
 Node,763,AIR TERMINAL SINGLE DUCT VAV REHEAT 50 DAMPER OUTLET,Air,1
 Node,764,AIR TERMINAL SINGLE DUCT VAV REHEAT 51 DAMPER OUTLET,Air,1
 Node,765,AIR TERMINAL SINGLE DUCT VAV REHEAT 52 DAMPER OUTLET,Air,1
 Node,766,AIR TERMINAL SINGLE DUCT VAV REHEAT 53 DAMPER OUTLET,Air,1
 Node,767,AIR TERMINAL SINGLE DUCT VAV REHEAT 54 DAMPER OUTLET,Air,1
 Node,768,AIR TERMINAL SINGLE DUCT VAV REHEAT 55 DAMPER OUTLET,Air,1
 Node,769,AIR TERMINAL SINGLE DUCT VAV REHEAT 56 DAMPER OUTLET,Air,1
 Node,770,AIR TERMINAL SINGLE DUCT VAV REHEAT 57 DAMPER OUTLET,Air,1
 Node,771,AIR TERMINAL SINGLE DUCT VAV REHEAT 58 DAMPER OUTLET,Air,1
 Node,772,AIR TERMINAL SINGLE DUCT VAV REHEAT 59 DAMPER OUTLET,Air,1
 Node,773,AIR TERMINAL SINGLE DUCT VAV REHEAT 60 DAMPER OUTLET,Air,1
 Node,774,AIR TERMINAL SINGLE DUCT VAV REHEAT 61 DAMPER OUTLET,Air,1
 Node,775,AIR TERMINAL SINGLE DUCT VAV REHEAT 62 DAMPER OUTLET,Air,1
 Node,776,AIR TERMINAL SINGLE DUCT VAV REHEAT 63 DAMPER OUTLET,Air,1
 Node,777,AIR TERMINAL SINGLE DUCT VAV REHEAT 64 DAMPER OUTLET,Air,1
 Node,778,AIR TERMINAL SINGLE DUCT VAV REHEAT 65 DAMPER OUTLET,Air,1
 Node,779,AIR TERMINAL SINGLE DUCT VAV REHEAT 66 DAMPER OUTLET,Air,1
 Node,780,AIR TERMINAL SINGLE DUCT VAV REHEAT 67 DAMPER OUTLET,Air,1
 Node,781,AIR TERMINAL SINGLE DUCT VAV REHEAT 68 DAMPER OUTLET,Air,1
 Node,782,AIR TERMINAL SINGLE DUCT VAV REHEAT 69 DAMPER OUTLET,Air,1
 Node,783,AIR TERMINAL SINGLE DUCT VAV REHEAT 70 DAMPER OUTLET,Air,1
 Node,784,AIR TERMINAL SINGLE DUCT VAV REHEAT 71 DAMPER OUTLET,Air,1
 Node,785,AIR TERMINAL SINGLE DUCT VAV REHEAT 72 DAMPER OUTLET,Air,1
 Node,786,AIR TERMINAL SINGLE DUCT VAV REHEAT 73 DAMPER OUTLET,Air,1
 Node,787,AIR TERMINAL SINGLE DUCT VAV REHEAT 74 DAMPER OUTLET,Air,1
 Node,788,AIR TERMINAL SINGLE DUCT VAV REHEAT 75 DAMPER OUTLET,Air,1
 Node,789,AIR TERMINAL SINGLE DUCT VAV REHEAT 76 DAMPER OUTLET,Air,1
 Node,790,AIR TERMINAL SINGLE DUCT VAV REHEAT 77 DAMPER OUTLET,Air,1
 Node,791,AIR TERMINAL SINGLE DUCT VAV REHEAT 78 DAMPER OUTLET,Air,1
 Node,792,AIR TERMINAL SINGLE DUCT VAV REHEAT 79 DAMPER OUTLET,Air,1
 Node,793,AIR TERMINAL SINGLE DUCT VAV REHEAT 80 DAMPER OUTLET,Air,1
 Node,794,AIR TERMINAL SINGLE DUCT VAV REHEAT 81 DAMPER OUTLET,Air,1
 Node,795,AIR TERMINAL SINGLE DUCT VAV REHEAT 82 DAMPER OUTLET,Air,1
 Node,796,AIR TERMINAL SINGLE DUCT VAV REHEAT 83 DAMPER OUTLET,Air,1
 Node,797,AIR TERMINAL SINGLE DUCT VAV REHEAT 84 DAMPER OUTLET,Air,1
 Node,798,AIR TERMINAL SINGLE DUCT VAV REHEAT 85 DAMPER OUTLET,Air,1
 Node,799,AIR TERMINAL SINGLE DUCT VAV REHEAT 86 DAMPER OUTLET,Air,1
 Node,800,AIR TERMINAL SINGLE DUCT VAV REHEAT 87 DAMPER OUTLET,Air,1
 Node,801,AIR TERMINAL SINGLE DUCT VAV REHEAT 88 DAMPER OUTLET,Air,1
 Node,802,AIR TERMINAL SINGLE DUCT VAV REHEAT 89 DAMPER OUTLET,Air,1
 Node,803,AIR TERMINAL SINGLE DUCT VAV REHEAT 90 DAMPER OUTLET,Air,1
 Node,804,AIR TERMINAL SINGLE DUCT VAV REHEAT 91 DAMPER OUTLET,Air,1
 Node,805,AIR TERMINAL SINGLE DUCT VAV REHEAT 92 DAMPER OUTLET,Air,1
 Node,806,AIR TERMINAL SINGLE DUCT VAV REHEAT 93 DAMPER OUTLET,Air,1
 Node,807,AIR TERMINAL SINGLE DUCT VAV REHEAT 94 DAMPER OUTLET,Air,1
 Node,808,AIR TERMINAL SINGLE DUCT VAV REHEAT 95 DAMPER OUTLET,Air,1
 Node,809,AIR TERMINAL SINGLE DUCT VAV REHEAT 96 DAMPER OUTLET,Air,1
 Node,810,AIR TERMINAL SINGLE DUCT VAV REHEAT 97 DAMPER OUTLET,Air,1
 Node,811,AIR TERMINAL SINGLE DUCT VAV REHEAT 98 DAMPER OUTLET,Air,1
 Node,812,AIR TERMINAL SINGLE DUCT VAV REHEAT 99 DAMPER OUTLET,Air,1
 Node,813,AIR TERMINAL SINGLE DUCT VAV REHEAT 100 DAMPER OUTLET,Air,1
 Node,814,AIR TERMINAL SINGLE DUCT VAV REHEAT 101 DAMPER OUTLET,Air,1
 Node,815,AIR TERMINAL SINGLE DUCT VAV REHEAT 102 DAMPER OUTLET,Air,1
 Node,816,AIR TERMINAL SINGLE DUCT VAV REHEAT 103 DAMPER OUTLET,Air,1
 Node,817,AIR TERMINAL SINGLE DUCT VAV REHEAT 104 DAMPER OUTLET,Air,1
 Node,818,AIR TERMINAL SINGLE DUCT VAV REHEAT 105 DAMPER OUTLET,Air,1
 Node,819,AIR TERMINAL SINGLE DUCT VAV REHEAT 106 DAMPER OUTLET,Air,1
 Node,820,AIR TERMINAL SINGLE DUCT VAV REHEAT 107 DAMPER OUTLET,Air,1
 Node,821,AIR TERMINAL SINGLE DUCT VAV REHEAT 108 DAMPER OUTLET,Air,1
 Node,822,AIR TERMINAL SINGLE DUCT VAV REHEAT 109 DAMPER OUTLET,Air,1
 Node,823,AIR TERMINAL SINGLE DUCT VAV REHEAT 110 DAMPER OUTLET,Air,1
 Node,824,AIR TERMINAL SINGLE DUCT VAV REHEAT 111 DAMPER OUTLET,Air,1
 Node,825,AIR TERMINAL SINGLE DUCT VAV REHEAT 112 DAMPER OUTLET,Air,1
 Node,826,AIR TERMINAL SINGLE DUCT VAV REHEAT 113 DAMPER OUTLET,Air,1
 Node,827,AIR TERMINAL SINGLE DUCT VAV REHEAT 114 DAMPER OUTLET,Air,1
 Node,828,AIR TERMINAL SINGLE DUCT VAV REHEAT 115 DAMPER OUTLET,Air,1
 Node,829,AIR TERMINAL SINGLE DUCT VAV REHEAT 116 DAMPER OUTLET,Air,1
 Node,830,NODE 122,Air,1
! ===============================================================
! Suspicious nodes have 0 references.  It is normal for some nodes, however.
! Listing nodes with 0 references (culled from previous list):
! <Suspicious Node>,<NodeNumber>,<Node Name>,<Node Fluid Type>,<# Times Node Referenced After Definition>
 Suspicious Node,368,NODE 43,Air,0
 Suspicious Node,370,NODE 72,Air,0
 Suspicious Node,372,NODE 49,Air,0
 Suspicious Node,374,NODE 38,Air,0
 Suspicious Node,376,NODE 37,Air,0
 Suspicious Node,378,NODE 83,Air,0
 Suspicious Node,380,NODE 95,Air,0
 Suspicious Node,382,NODE 9,Air,0
 Suspicious Node,384,NODE 17,Air,0
 Suspicious Node,386,NODE 67,Air,0
 Suspicious Node,388,NODE 50,Air,0
 Suspicious Node,390,NODE 18,Air,0
 Suspicious Node,392,NODE 6,Air,0
 Suspicious Node,394,NODE 39,Air,0
 Suspicious Node,396,NODE 33,Air,0
 Suspicious Node,398,NODE 13,Air,0
 Suspicious Node,400,NODE 84,Air,0
 Suspicious Node,402,NODE 71,Air,0
 Suspicious Node,404,NODE 103,Air,0
 Suspicious Node,406,NODE 75,Air,0
 Suspicious Node,408,NODE 77,Air,0
 Suspicious Node,410,NODE 92,Air,0
 Suspicious Node,412,NODE 42,Air,0
 Suspicious Node,414,NODE 102,Air,0
 Suspicious Node,416,NODE 8,Air,0
 Suspicious Node,418,NODE 55,Air,0
 Suspicious Node,420,NODE 46,Air,0
 Suspicious Node,422,NODE 64,Air,0
 Suspicious Node,424,NODE 69,Air,0
 Suspicious Node,426,NODE 10,Air,0
 Suspicious Node,428,NODE 59,Air,0
 Suspicious Node,430,NODE 93,Air,0
 Suspicious Node,432,NODE 98,Air,0
 Suspicious Node,434,NODE 57,Air,0
 Suspicious Node,436,NODE 51,Air,0
 Suspicious Node,438,NODE 1,Air,0
 Suspicious Node,440,NODE 26,Air,0
 Suspicious Node,442,NODE 30,Air,0
 Suspicious Node,444,NODE 19,Air,0
 Suspicious Node,446,NODE 106,Air,0
 Suspicious Node,448,NODE 88,Air,0
 Suspicious Node,450,NODE 28,Air,0
 Suspicious Node,452,NODE 90,Air,0
 Suspicious Node,454,NODE 101,Air,0
 Suspicious Node,456,NODE 23,Air,0
 Suspicious Node,458,NODE 48,Air,0
 Suspicious Node,460,NODE 52,Air,0
 Suspicious Node,462,NODE 113,Air,0
 Suspicious Node,464,NODE 31,Air,0
 Suspicious Node,466,NODE 34,Air,0
 Suspicious Node,468,NODE 53,Air,0
 Suspicious Node,470,NODE 36,Air,0
 Suspicious Node,472,NODE 108,Air,0
 Suspicious Node,474,NODE 56,Air,0
 Suspicious Node,476,NODE 45,Air,0
 Suspicious Node,478,NODE 105,Air,0
 Suspicious Node,480,NODE 62,Air,0
 Suspicious Node,482,NODE 81,Air,0
 Suspicious Node,484,NODE 7,Air,0
 Suspicious Node,486,NODE 3,Air,0
 Suspicious Node,488,NODE 5,Air,0
 Suspicious Node,490,NODE 61,Air,0
 Suspicious Node,492,NODE 11,Air,0
 Suspicious Node,494,NODE 70,Air,0
 Suspicious Node,496,NODE 68,Air,0
 Suspicious Node,498,NODE 87,Air,0
 Suspicious Node,500,NODE 41,Air,0
 Suspicious Node,502,NODE 100,Air,0
 Suspicious Node,504,NODE 96,Air,0
 Suspicious Node,506,NODE 40,Air,0
 Suspicious Node,508,NODE 14,Air,0
 Suspicious Node,510,NODE 29,Air,0
 Suspicious Node,512,NODE 24,Air,0
 Suspicious Node,514,NODE 25,Air,0
 Suspicious Node,516,NODE 85,Air,0
 Suspicious Node,518,NODE 2,Air,0
 Suspicious Node,520,NODE 97,Air,0
 Suspicious Node,522,NODE 27,Air,0
 Suspicious Node,524,NODE 86,Air,0
 Suspicious Node,526,NODE 89,Air,0
 Suspicious Node,528,NODE 111,Air,0
 Suspicious Node,530,NODE 78,Air,0
 Suspicious Node,532,NODE 82,Air,0
 Suspicious Node,534,NODE 21,Air,0
 Suspicious Node,536,NODE 22,Air,0
 Suspicious Node,538,NODE 35,Air,0
 Suspicious Node,540,NODE 94,Air,0
 Suspicious Node,542,NODE 109,Air,0
 Suspicious Node,544,NODE 104,Air,0
 Suspicious Node,546,NODE 112,Air,0
 Suspicious Node,548,NODE 107,Air,0
 Suspicious Node,550,NODE 54,Air,0
 Suspicious Node,552,NODE 99,Air,0
 Suspicious Node,554,NODE 80,Air,0
 Suspicious Node,556,NODE 65,Air,0
 Suspicious Node,558,NODE 91,Air,0
 Suspicious Node,560,NODE 73,Air,0
 Suspicious Node,562,NODE 110,Air,0
 Suspicious Node,564,NODE 114,Air,0
 Suspicious Node,566,NODE 66,Air,0
 Suspicious Node,568,NODE 47,Air,0
 Suspicious Node,570,NODE 20,Air,0
 Suspicious Node,572,NODE 74,Air,0
 Suspicious Node,574,NODE 58,Air,0
 Suspicious Node,576,NODE 12,Air,0
 Suspicious Node,578,NODE 16,Air,0
 Suspicious Node,580,NODE 15,Air,0
 Suspicious Node,582,NODE 115,Air,0
 Suspicious Node,584,NODE 79,Air,0
 Suspicious Node,586,NODE 60,Air,0
 Suspicious Node,588,NODE 63,Air,0
 Suspicious Node,590,NODE 44,Air,0
 Suspicious Node,592,NODE 76,Air,0
 Suspicious Node,594,NODE 4,Air,0
 Suspicious Node,596,NODE 32,Air,0
! ===============================================================
! <#Branch Lists>,<Number of Branch Lists>
 #Branch Lists,3
! <Branch List>,<Branch List Count>,<Branch List Name>,<Loop Name>,<Loop Type>,<Number of Branches>
! <Branch>,<Branch Count>,<Branch Name>,<Loop Name>,<Loop Type>,<Branch Inlet Node Name>,<Branch Outlet Node Name>
 Branch List,1,BRANCHLIST {E0BEB6AB-0BDD-437E-809A-5532F27A4271},AIR LOOP HVAC 1,Air,1
   Branch,1,BRANCH {92C68AC5-4187-416D-826E-80AADF91B36F},AIR LOOP HVAC 1,Air,NODE 116,NODE 117
 Branch List,2,PLANT LOOP 1 SUPPLY BRANCHES,PLANT LOOP 1,Plant Supply,4
   Branch,1,PLANT LOOP 1 SUPPLY INLET BRANCH,PLANT LOOP 1,Plant Supply,NODE 126,NODE 132
   Branch,2,PLANT LOOP 1 SUPPLY BRANCH 1,PLANT LOOP 1,Plant Supply,NODE 128,NODE 133
   Branch,3,PLANT LOOP 1 SUPPLY BRANCH 2,PLANT LOOP 1,Plant Supply,NODE 134,NODE 135
   Branch,4,PLANT LOOP 1 SUPPLY OUTLET BRANCH,PLANT LOOP 1,Plant Supply,NODE 136,NODE 127
 Branch List,3,PLANT LOOP 1 DEMAND BRANCHES,PLANT LOOP 1,Plant Demand,119
   Branch,1,PLANT LOOP 1 DEMAND INLET BRANCH,PLANT LOOP 1,Plant Demand,NODE 129,PLANT LOOP 1 DEMAND INLET PIPE NODE
   Branch,2,PLANT LOOP 1 DEMAND BRANCH 1,PLANT LOOP 1,Plant Demand,NODE 131,NODE 137
   Branch,3,PLANT LOOP 1 DEMAND BRANCH 2,PLANT LOOP 1,Plant Demand,NODE 140,NODE 141
   Branch,4,PLANT LOOP 1 DEMAND BRANCH 3,PLANT LOOP 1,Plant Demand,NODE 145,NODE 146
   Branch,5,PLANT LOOP 1 DEMAND BRANCH 4,PLANT LOOP 1,Plant Demand,NODE 150,NODE 151
   Branch,6,PLANT LOOP 1 DEMAND BRANCH 5,PLANT LOOP 1,Plant Demand,NODE 155,NODE 156
   Branch,7,PLANT LOOP 1 DEMAND BRANCH 6,PLANT LOOP 1,Plant Demand,NODE 160,NODE 161
   Branch,8,PLANT LOOP 1 DEMAND BRANCH 7,PLANT LOOP 1,Plant Demand,NODE 165,NODE 166
   Branch,9,PLANT LOOP 1 DEMAND BRANCH 8,PLANT LOOP 1,Plant Demand,NODE 170,NODE 171
   Branch,10,PLANT LOOP 1 DEMAND BRANCH 9,PLANT LOOP 1,Plant Demand,NODE 175,NODE 176
   Branch,11,PLANT LOOP 1 DEMAND BRANCH 10,PLANT LOOP 1,Plant Demand,NODE 180,NODE 181
   Branch,12,PLANT LOOP 1 DEMAND BRANCH 11,PLANT LOOP 1,Plant Demand,NODE 185,NODE 186
   Branch,13,PLANT LOOP 1 DEMAND BRANCH 12,PLANT LOOP 1,Plant Demand,NODE 190,NODE 191
   Branch,14,PLANT LOOP 1 DEMAND BRANCH 13,PLANT LOOP 1,Plant Demand,NODE 195,NODE 196
   Branch,15,PLANT LOOP 1 DEMAND BRANCH 14,PLANT LOOP 1,Plant Demand,NODE 200,NODE 201
   Branch,16,PLANT LOOP 1 DEMAND BRANCH 15,PLANT LOOP 1,Plant Demand,NODE 205,NODE 206
   Branch,17,PLANT LOOP 1 DEMAND BRANCH 16,PLANT LOOP 1,Plant Demand,NODE 210,NODE 211
   Branch,18,PLANT LOOP 1 DEMAND BRANCH 17,PLANT LOOP 1,Plant Demand,NODE 215,NODE 216
   Branch,19,PLANT LOOP 1 DEMAND BRANCH 18,PLANT LOOP 1,Plant Demand,NODE 220,NODE 221
   Branch,20,PLANT LOOP 1 DEMAND BRANCH 19,PLANT LOOP 1,Plant Demand,NODE 225,NODE 226
   Branch,21,PLANT LOOP 1 DEMAND BRANCH 20,PLANT LOOP 1,Plant Demand,NODE 230,NODE 231
   Branch,22,PLANT LOOP 1 DEMAND BRANCH 21,PLANT LOOP 1,Plant Demand,NODE 235,NODE 236
   Branch,23,PLANT LOOP 1 DEMAND BRANCH 22,PLANT LOOP 1,Plant Demand,NODE 240,NODE 241
   Branch,24,PLANT LOOP 1 DEMAND BRANCH 23,PLANT LOOP 1,Plant Demand,NODE 245,NODE 246
   Branch,25,PLANT LOOP 1 DEMAND BRANCH 24,PLANT LOOP 1,Plant Demand,NODE 250,NODE 251
   Branch,26,PLANT LOOP 1 DEMAND BRANCH 25,PLANT LOOP 1,Plant Demand,NODE 255,NODE 256
   Branch,27,PLANT LOOP 1 DEMAND BRANCH 26,PLANT LOOP 1,Plant Demand,NODE 260,NODE 261
   Branch,28,PLANT LOOP 1 DEMAND BRANCH 27,PLANT LOOP 1,Plant Demand,NODE 265,NODE 266
   Branch,29,PLANT LOOP 1 DEMAND BRANCH 28,PLANT LOOP 1,Plant Demand,NODE 270,NODE 271
   Branch,30,PLANT LOOP 1 DEMAND BRANCH 29,PLANT LOOP 1,Plant Demand,NODE 275,NODE 276
   Branch,31,PLANT LOOP 1 DEMAND BRANCH 30,PLANT LOOP 1,Plant Demand,NODE 280,NODE 281
   Branch,32,PLANT LOOP 1 DEMAND BRANCH 31,PLANT LOOP 1,Plant Demand,NODE 285,NODE 286
   Branch,33,PLANT LOOP 1 DEMAND BRANCH 32,PLANT LOOP 1,Plant Demand,NODE 290,NODE 291
   Branch,34,PLANT LOOP 1 DEMAND BRANCH 33,PLANT LOOP 1,Plant Demand,NODE 295,NODE 296
   Branch,35,PLANT LOOP 1 DEMAND BRANCH 34,PLANT LOOP 1,Plant Demand,NODE 300,NODE 301
   Branch,36,PLANT LOOP 1 DEMAND BRANCH 35,PLANT LOOP 1,Plant Demand,NODE 305,NODE 306
   Branch,37,PLANT LOOP 1 DEMAND BRANCH 36,PLANT LOOP 1,Plant Demand,NODE 310,NODE 311
   Branch,38,PLANT LOOP 1 DEMAND BRANCH 37,PLANT LOOP 1,Plant Demand,NODE 315,NODE 316
   Branch,39,PLANT LOOP 1 DEMAND BRANCH 38,PLANT LOOP 1,Plant Demand,NODE 320,NODE 321
   Branch,40,PLANT LOOP 1 DEMAND BRANCH 39,PLANT LOOP 1,Plant Demand,NODE 325,NODE 326
   Branch,41,PLANT LOOP 1 DEMAND BRANCH 40,PLANT LOOP 1,Plant Demand,NODE 330,NODE 331
   Branch,42,PLANT LOOP 1 DEMAND BRANCH 41,PLANT LOOP 1,Plant Demand,NODE 335,NODE 336
   Branch,43,PLANT LOOP 1 DEMAND BRANCH 42,PLANT LOOP 1,Plant Demand,NODE 340,NODE 341
   Branch,44,PLANT LOOP 1 DEMAND BRANCH 43,PLANT LOOP 1,Plant Demand,NODE 345,NODE 346
   Branch,45,PLANT LOOP 1 DEMAND BRANCH 44,PLANT LOOP 1,Plant Demand,NODE 350,NODE 351
   Branch,46,PLANT LOOP 1 DEMAND BRANCH 45,PLANT LOOP 1,Plant Demand,NODE 355,NODE 356
   Branch,47,PLANT LOOP 1 DEMAND BRANCH 46,PLANT LOOP 1,Plant Demand,NODE 360,NODE 361
   Branch,48,PLANT LOOP 1 DEMAND BRANCH 47,PLANT LOOP 1,Plant Demand,NODE 365,NODE 366
   Branch,49,PLANT LOOP 1 DEMAND BRANCH 48,PLANT LOOP 1,Plant Demand,NODE 370,NODE 371
   Branch,50,PLANT LOOP 1 DEMAND BRANCH 49,PLANT LOOP 1,Plant Demand,NODE 375,NODE 376
   Branch,51,PLANT LOOP 1 DEMAND BRANCH 50,PLANT LOOP 1,Plant Demand,NODE 380,NODE 381
   Branch,52,PLANT LOOP 1 DEMAND BRANCH 51,PLANT LOOP 1,Plant Demand,NODE 385,NODE 386
   Branch,53,PLANT LOOP 1 DEMAND BRANCH 52,PLANT LOOP 1,Plant Demand,NODE 390,NODE 391
   Branch,54,PLANT LOOP 1 DEMAND BRANCH 53,PLANT LOOP 1,Plant Demand,NODE 395,NODE 396
   Branch,55,PLANT LOOP 1 DEMAND BRANCH 54,PLANT LOOP 1,Plant Demand,NODE 400,NODE 401
   Branch,56,PLANT LOOP 1 DEMAND BRANCH 55,PLANT LOOP 1,Plant Demand,NODE 405,NODE 406
   Branch,57,PLANT LOOP 1 DEMAND BRANCH 56,PLANT LOOP 1,Plant Demand,NODE 410,NODE 411
   Branch,58,PLANT LOOP 1 DEMAND BRANCH 57,PLANT LOOP 1,Plant Demand,NODE 415,NODE 416
   Branch,59,PLANT LOOP 1 DEMAND BRANCH 58,PLANT LOOP 1,Plant Demand,NODE 420,NODE 421
   Branch,60,PLANT LOOP 1 DEMAND BRANCH 59,PLANT LOOP 1,Plant Demand,NODE 425,NODE 426
   Branch,61,PLANT LOOP 1 DEMAND BRANCH 60,PLANT LOOP 1,Plant Demand,NODE 430,NODE 431
   Branch,62,PLANT LOOP 1 DEMAND BRANCH 61,PLANT LOOP 1,Plant Demand,NODE 435,NODE 436
   Branch,63,PLANT LOOP 1 DEMAND BRANCH 62,PLANT LOOP 1,Plant Demand,NODE 440,NODE 441
   Branch,64,PLANT LOOP 1 DEMAND BRANCH 63,PLANT LOOP 1,Plant Demand,NODE 445,NODE 446
   Branch,65,PLANT LOOP 1 DEMAND BRANCH 64,PLANT LOOP 1,Plant Demand,NODE 450,NODE 451
   Branch,66,PLANT LOOP 1 DEMAND BRANCH 65,PLANT LOOP 1,Plant Demand,NODE 455,NODE 456
   Branch,67,PLANT LOOP 1 DEMAND BRANCH 66,PLANT LOOP 1,Plant Demand,NODE 460,NODE 461
   Branch,68,PLANT LOOP 1 DEMAND BRANCH 67,PLANT LOOP 1,Plant Demand,NODE 465,NODE 466
   Branch,69,PLANT LOOP 1 DEMAND BRANCH 68,PLANT LOOP 1,Plant Demand,NODE 470,NODE 471
   Branch,70,PLANT LOOP 1 DEMAND BRANCH 69,PLANT LOOP 1,Plant Demand,NODE 475,NODE 476
   Branch,71,PLANT LOOP 1 DEMAND BRANCH 70,PLANT LOOP 1,Plant Demand,NODE 480,NODE 481
   Branch,72,PLANT LOOP 1 DEMAND BRANCH 71,PLANT LOOP 1,Plant Demand,NODE 485,NODE 486
   Branch,73,PLANT LOOP 1 DEMAND BRANCH 72,PLANT LOOP 1,Plant Demand,NODE 490,NODE 491
   Branch,74,PLANT LOOP 1 DEMAND BRANCH 73,PLANT LOOP 1,Plant Demand,NODE 495,NODE 496
   Branch,75,PLANT LOOP 1 DEMAND BRANCH 74,PLANT LOOP 1,Plant Demand,NODE 500,NODE 501
   Branch,76,PLANT LOOP 1 DEMAND BRANCH 75,PLANT LOOP 1,Plant Demand,NODE 505,NODE 506
   Branch,77,PLANT LOOP 1 DEMAND BRANCH 76,PLANT LOOP 1,Plant Demand,NODE 510,NODE 511
   Branch,78,PLANT LOOP 1 DEMAND BRANCH 77,PLANT LOOP 1,Plant Demand,NODE 515,NODE 516
   Branch,79,PLANT LOOP 1 DEMAND BRANCH 78,PLANT LOOP 1,Plant Demand,NODE 520,NODE 521
   Branch,80,PLANT LOOP 1 DEMAND BRANCH 79,PLANT LOOP 1,Plant Demand,NODE 525,NODE 526
   Branch,81,PLANT LOOP 1 DEMAND BRANCH 80,PLANT LOOP 1,Plant Demand,NODE 530,NODE 531
   Branch,82,PLANT LOOP 1 DEMAND BRANCH 81,PLANT LOOP 1,Plant Demand,NODE 535,NODE 536
   Branch,83,PLANT LOOP 1 DEMAND BRANCH 82,PLANT LOOP 1,Plant Demand,NODE 540,NODE 541
   Branch,84,PLANT LOOP 1 DEMAND BRANCH 83,PLANT LOOP 1,Plant Demand,NODE 545,NODE 546
   Branch,85,PLANT LOOP 1 DEMAND BRANCH 84,PLANT LOOP 1,Plant Demand,NODE 550,NODE 551
   Branch,86,PLANT LOOP 1 DEMAND BRANCH 85,PLANT LOOP 1,Plant Demand,NODE 555,NODE 556
   Branch,87,PLANT LOOP 1 DEMAND BRANCH 86,PLANT LOOP 1,Plant Demand,NODE 560,NODE 561
   Branch,88,PLANT LOOP 1 DEMAND BRANCH 87,PLANT LOOP 1,Plant Demand,NODE 565,NODE 566
   Branch,89,PLANT LOOP 1 DEMAND BRANCH 88,PLANT LOOP 1,Plant Demand,NODE 570,NODE 571
   Branch,90,PLANT LOOP 1 DEMAND BRANCH 89,PLANT LOOP 1,Plant Demand,NODE 575,NODE 576
   Branch,91,PLANT LOOP 1 DEMAND BRANCH 90,PLANT LOOP 1,Plant Demand,NODE 580,NODE 581
   Branch,92,PLANT LOOP 1 DEMAND BRANCH 91,PLANT LOOP 1,Plant Demand,NODE 585,NODE 586
   Branch,93,PLANT LOOP 1 DEMAND BRANCH 92,PLANT LOOP 1,Plant Demand,NODE 590,NODE 591
   Branch,94,PLANT LOOP 1 DEMAND BRANCH 93,PLANT LOOP 1,Plant Demand,NODE 595,NODE 596
   Branch,95,PLANT LOOP 1 DEMAND BRANCH 94,PLANT LOOP 1,Plant Demand,NODE 600,NODE 601
   Branch,96,PLANT LOOP 1 DEMAND BRANCH 95,PLANT LOOP 1,Plant Demand,NODE 605,NODE 606
   Branch,97,PLANT LOOP 1 DEMAND BRANCH 96,PLANT LOOP 1,Plant Demand,NODE 610,NODE 611
   Branch,98,PLANT LOOP 1 DEMAND BRANCH 97,PLANT LOOP 1,Plant Demand,NODE 615,NODE 616
   Branch,99,PLANT LOOP 1 DEMAND BRANCH 98,PLANT LOOP 1,Plant Demand,NODE 620,NODE 621
   Branch,100,PLANT LOOP 1 DEMAND BRANCH 99,PLANT LOOP 1,Plant Demand,NODE 625,NODE 626
   Branch,101,PLANT LOOP 1 DEMAND BRANCH 100,PLANT LOOP 1,Plant Demand,NODE 630,NODE 631
   Branch,102,PLANT LOOP 1 DEMAND BRANCH 101,PLANT LOOP 1,Plant Demand,NODE 635,NODE 636
   Branch,103,PLANT LOOP 1 DEMAND BRANCH 102,PLANT LOOP 1,Plant Demand,NODE 640,NODE 641
   Branch,104,PLANT LOOP 1 DEMAND BRANCH 103,PLANT LOOP 1,Plant Demand,NODE 645,NODE 646
   Branch,105,PLANT LOOP 1 DEMAND BRANCH 104,PLANT LOOP 1,Plant Demand,NODE 650,NODE 651
   Branch,106,PLANT LOOP 1 DEMAND BRANCH 105,PLANT LOOP 1,Plant Demand,NODE 655,NODE 656
   Branch,107,PLANT LOOP 1 DEMAND BRANCH 106,PLANT LOOP 1,Plant Demand,NODE 660,NODE 661
   Branch,108,PLANT LOOP 1 DEMAND BRANCH 107,PLANT LOOP 1,Plant Demand,NODE 665,NODE 666
   Branch,109,PLANT LOOP 1 DEMAND BRANCH 108,PLANT LOOP 1,Plant Demand,NODE 670,NODE 671
   Branch,110,PLANT LOOP 1 DEMAND BRANCH 109,PLANT LOOP 1,Plant Demand,NODE 675,NODE 676
   Branch,111,PLANT LOOP 1 DEMAND BRANCH 110,PLANT LOOP 1,Plant Demand,NODE 680,NODE 681
   Branch,112,PLANT LOOP 1 DEMAND BRANCH 111,PLANT LOOP 1,Plant Demand,NODE 685,NODE 686
   Branch,113,PLANT LOOP 1 DEMAND BRANCH 112,PLANT LOOP 1,Plant Demand,NODE 690,NODE 691
   Branch,114,PLANT LOOP 1 DEMAND BRANCH 113,PLANT LOOP 1,Plant Demand,NODE 695,NODE 696
   Branch,115,PLANT LOOP 1 DEMAND BRANCH 114,PLANT LOOP 1,Plant Demand,NODE 700,NODE 701
   Branch,116,PLANT LOOP 1 DEMAND BRANCH 115,PLANT LOOP 1,Plant Demand,NODE 705,NODE 706
   Branch,117,PLANT LOOP 1 DEMAND BRANCH 116,PLANT LOOP 1,Plant Demand,NODE 710,NODE 711
   Branch,118,PLANT LOOP 1 DEMAND BYPASS BRANCH,PLANT LOOP 1,Plant Demand,PLANT LOOP 1 DEMAND BYPASS PIPE INLET NODE,PLANT LOOP 1 DEMAND BYPASS PIPE OUTLET NODE
   Branch,119,PLANT LOOP 1 DEMAND OUTLET BRANCH,PLANT LOOP 1,Plant Demand,PLANT LOOP 1 DEMAND OUTLET PIPE NODE,NODE 130
! ===============================================================
! <#Supply Air Paths>,<Number of Supply Air Paths>
 #Supply Air Paths,1
! <Supply Air Path>,<Supply Air Path Count>,<Supply Air Path Name>,<AirLoopHVAC Name>
! <#Components on Supply Air Path>,<Number of Components>
! <Supply Air Path Component>,<Component Count>,<Component Type>,<Component Name>,<AirLoopHVAC Name>
! <#Outlet Nodes on Supply Air Path Component>,<Number of Nodes>
! <Supply Air Path Component Nodes>,<Node Count>,<Component Type>,<Component Name>,<Inlet Node Name>,<Outlet Node Name>,<AirLoopHVAC Name>
 Supply Air Path,1,AIRLOOPHVAC:SUPPLYPATH {B4A72202-26F5-45A2-892C-FBBA6381A41A},AIR LOOP HVAC 1
   #Components on Supply Air Path,1
   Supply Air Path Component,1,AIRLOOPHVAC:ZONESPLITTER,AIR LOOP HVAC ZONE SPLITTER 1,AIR LOOP HVAC 1
     #Outlet Nodes on Supply Air Path Component,115
     Supply Air Path Component Nodes,1,AIRLOOPHVAC:ZONESPLITTER,AIR LOOP HVAC ZONE SPLITTER 1,NODE 118,NODE 139,AIR LOOP HVAC 1
     Supply Air Path Component Nodes,2,AIRLOOPHVAC:ZONESPLITTER,AIR LOOP HVAC ZONE SPLITTER 1,NODE 118,NODE 144,AIR LOOP HVAC 1
     Supply Air Path Component Nodes,3,AIRLOOPHVAC:ZONESPLITTER,AIR LOOP HVAC ZONE SPLITTER 1,NODE 118,NODE 149,AIR LOOP HVAC 1
     Supply Air Path Component Nodes,4,AIRLOOPHVAC:ZONESPLITTER,AIR LOOP HVAC ZONE SPLITTER 1,NODE 118,NODE 154,AIR LOOP HVAC 1
     Supply Air Path Component Nodes,5,AIRLOOPHVAC:ZONESPLITTER,AIR LOOP HVAC ZONE SPLITTER 1,NODE 118,NODE 159,AIR LOOP HVAC 1
     Supply Air Path Component Nodes,6,AIRLOOPHVAC:ZONESPLITTER,AIR LOOP HVAC ZONE SPLITTER 1,NODE 118,NODE 164,AIR LOOP HVAC 1
     Supply Air Path Component Nodes,7,AIRLOOPHVAC:ZONESPLITTER,AIR LOOP HVAC ZONE SPLITTER 1,NODE 118,NODE 169,AIR LOOP HVAC 1
     Supply Air Path Component Nodes,8,AIRLOOPHVAC:ZONESPLITTER,AIR LOOP HVAC ZONE SPLITTER 1,NODE 118,NODE 174,AIR LOOP HVAC 1
     Supply Air Path Component Nodes,9,AIRLOOPHVAC:ZONESPLITTER,AIR LOOP HVAC ZONE SPLITTER 1,NODE 118,NODE 179,AIR LOOP HVAC 1
     Supply Air Path Component Nodes,10,AIRLOOPHVAC:ZONESPLITTER,AIR LOOP HVAC ZONE SPLITTER 1,NODE 118,NODE 184,AIR LOOP HVAC 1
     Supply Air Path Component Nodes,11,AIRLOOPHVAC:ZONESPLITTER,AIR LOOP HVAC ZONE SPLITTER 1,NODE 118,NODE 189,AIR LOOP HVAC 1
     Supply Air Path Component Nodes,12,AIRLOOPHVAC:ZONESPLITTER,AIR LOOP HVAC ZONE SPLITTER 1,NODE 118,NODE 194,AIR LOOP HVAC 1
     Supply Air Path Component Nodes,13,AIRLOOPHVAC:ZONESPLITTER,AIR LOOP HVAC ZONE SPLITTER 1,NODE 118,NODE 199,AIR LOOP HVAC 1
     Supply Air Path Component Nodes,14,AIRLOOPHVAC:ZONESPLITTER,AIR LOOP HVAC ZONE SPLITTER 1,NODE 118,NODE 204,AIR LOOP HVAC 1
     Supply Air Path Component Nodes,15,AIRLOOPHVAC:ZONESPLITTER,AIR LOOP HVAC ZONE SPLITTER 1,NODE 118,NODE 209,AIR LOOP HVAC 1
     Supply Air Path Component Nodes,16,AIRLOOPHVAC:ZONESPLITTER,AIR LOOP HVAC ZONE SPLITTER 1,NODE 118,NODE 214,AIR LOOP HVAC 1
     Supply Air Path Component Nodes,17,AIRLOOPHVAC:ZONESPLITTER,AIR LOOP HVAC ZONE SPLITTER 1,NODE 118,NODE 219,AIR LOOP HVAC 1
     Supply Air Path Component Nodes,18,AIRLOOPHVAC:ZONESPLITTER,AIR LOOP HVAC ZONE SPLITTER 1,NODE 118,NODE 224,AIR LOOP HVAC 1
     Supply Air Path Component Nodes,19,AIRLOOPHVAC:ZONESPLITTER,AIR LOOP HVAC ZONE SPLITTER 1,NODE 118,NODE 229,AIR LOOP HVAC 1
     Supply Air Path Component Nodes,20,AIRLOOPHVAC:ZONESPLITTER,AIR LOOP HVAC ZONE SPLITTER 1,NODE 118,NODE 234,AIR LOOP HVAC 1
     Supply Air Path Component Nodes,21,AIRLOOPHVAC:ZONESPLITTER,AIR LOOP HVAC ZONE SPLITTER 1,NODE 118,NODE 239,AIR LOOP HVAC 1
     Supply Air Path Component Nodes,22,AIRLOOPHVAC:ZONESPLITTER,AIR LOOP HVAC ZONE SPLITTER 1,NODE 118,NODE 244,AIR LOOP HVAC 1
     Supply Air Path Component Nodes,23,AIRLOOPHVAC:ZONESPLITTER,AIR LOOP HVAC ZONE SPLITTER 1,NODE 118,NODE 249,AIR LOOP HVAC 1
     Supply Air Path Component Nodes,24,AIRLOOPHVAC:ZONESPLITTER,AIR LOOP HVAC ZONE SPLITTER 1,NODE 118,NODE 254,AIR LOOP HVAC 1
     Supply Air Path Component Nodes,25,AIRLOOPHVAC:ZONESPLITTER,AIR LOOP HVAC ZONE SPLITTER 1,NODE 118,NODE 259,AIR LOOP HVAC 1
     Supply Air Path Component Nodes,26,AIRLOOPHVAC:ZONESPLITTER,AIR LOOP HVAC ZONE SPLITTER 1,NODE 118,NODE 264,AIR LOOP HVAC 1
     Supply Air Path Component Nodes,27,AIRLOOPHVAC:ZONESPLITTER,AIR LOOP HVAC ZONE SPLITTER 1,NODE 118,NODE 269,AIR LOOP HVAC 1
     Supply Air Path Component Nodes,28,AIRLOOPHVAC:ZONESPLITTER,AIR LOOP HVAC ZONE SPLITTER 1,NODE 118,NODE 274,AIR LOOP HVAC 1
     Supply Air Path Component Nodes,29,AIRLOOPHVAC:ZONESPLITTER,AIR LOOP HVAC ZONE SPLITTER 1,NODE 118,NODE 279,AIR LOOP HVAC 1
     Supply Air Path Component Nodes,30,AIRLOOPHVAC:ZONESPLITTER,AIR LOOP HVAC ZONE SPLITTER 1,NODE 118,NODE 284,AIR LOOP HVAC 1
     Supply Air Path Component Nodes,31,AIRLOOPHVAC:ZONESPLITTER,AIR LOOP HVAC ZONE SPLITTER 1,NODE 118,NODE 289,AIR LOOP HVAC 1
     Supply Air Path Component Nodes,32,AIRLOOPHVAC:ZONESPLITTER,AIR LOOP HVAC ZONE SPLITTER 1,NODE 118,NODE 294,AIR LOOP HVAC 1
     Supply Air Path Component Nodes,33,AIRLOOPHVAC:ZONESPLITTER,AIR LOOP HVAC ZONE SPLITTER 1,NODE 118,NODE 299,AIR LOOP HVAC 1
     Supply Air Path Component Nodes,34,AIRLOOPHVAC:ZONESPLITTER,AIR LOOP HVAC ZONE SPLITTER 1,NODE 118,NODE 304,AIR LOOP HVAC 1
     Supply Air Path Component Nodes,35,AIRLOOPHVAC:ZONESPLITTER,AIR LOOP HVAC ZONE SPLITTER 1,NODE 118,NODE 309,AIR LOOP HVAC 1
     Supply Air Path Component Nodes,36,AIRLOOPHVAC:ZONESPLITTER,AIR LOOP HVAC ZONE SPLITTER 1,NODE 118,NODE 314,AIR LOOP HVAC 1
     Supply Air Path Component Nodes,37,AIRLOOPHVAC:ZONESPLITTER,AIR LOOP HVAC ZONE SPLITTER 1,NODE 118,NODE 319,AIR LOOP HVAC 1
     Supply Air Path Component Nodes,38,AIRLOOPHVAC:ZONESPLITTER,AIR LOOP HVAC ZONE SPLITTER 1,NODE 118,NODE 324,AIR LOOP HVAC 1
     Supply Air Path Component Nodes,39,AIRLOOPHVAC:ZONESPLITTER,AIR LOOP HVAC ZONE SPLITTER 1,NODE 118,NODE 329,AIR LOOP HVAC 1
     Supply Air Path Component Nodes,40,AIRLOOPHVAC:ZONESPLITTER,AIR LOOP HVAC ZONE SPLITTER 1,NODE 118,NODE 334,AIR LOOP HVAC 1
     Supply Air Path Component Nodes,41,AIRLOOPHVAC:ZONESPLITTER,AIR LOOP HVAC ZONE SPLITTER 1,NODE 118,NODE 339,AIR LOOP HVAC 1
     Supply Air Path Component Nodes,42,AIRLOOPHVAC:ZONESPLITTER,AIR LOOP HVAC ZONE SPLITTER 1,NODE 118,NODE 344,AIR LOOP HVAC 1
     Supply Air Path Component Nodes,43,AIRLOOPHVAC:ZONESPLITTER,AIR LOOP HVAC ZONE SPLITTER 1,NODE 118,NODE 349,AIR LOOP HVAC 1
     Supply Air Path Component Nodes,44,AIRLOOPHVAC:ZONESPLITTER,AIR LOOP HVAC ZONE SPLITTER 1,NODE 118,NODE 354,AIR LOOP HVAC 1
     Supply Air Path Component Nodes,45,AIRLOOPHVAC:ZONESPLITTER,AIR LOOP HVAC ZONE SPLITTER 1,NODE 118,NODE 359,AIR LOOP HVAC 1
     Supply Air Path Component Nodes,46,AIRLOOPHVAC:ZONESPLITTER,AIR LOOP HVAC ZONE SPLITTER 1,NODE 118,NODE 364,AIR LOOP HVAC 1
     Supply Air Path Component Nodes,47,AIRLOOPHVAC:ZONESPLITTER,AIR LOOP HVAC ZONE SPLITTER 1,NODE 118,NODE 369,AIR LOOP HVAC 1
     Supply Air Path Component Nodes,48,AIRLOOPHVAC:ZONESPLITTER,AIR LOOP HVAC ZONE SPLITTER 1,NODE 118,NODE 374,AIR LOOP HVAC 1
     Supply Air Path Component Nodes,49,AIRLOOPHVAC:ZONESPLITTER,AIR LOOP HVAC ZONE SPLITTER 1,NODE 118,NODE 379,AIR LOOP HVAC 1
     Supply Air Path Component Nodes,50,AIRLOOPHVAC:ZONESPLITTER,AIR LOOP HVAC ZONE SPLITTER 1,NODE 118,NODE 384,AIR LOOP HVAC 1
     Supply Air Path Component Nodes,51,AIRLOOPHVAC:ZONESPLITTER,AIR LOOP HVAC ZONE SPLITTER 1,NODE 118,NODE 389,AIR LOOP HVAC 1
     Supply Air Path Component Nodes,52,AIRLOOPHVAC:ZONESPLITTER,AIR LOOP HVAC ZONE SPLITTER 1,NODE 118,NODE 394,AIR LOOP HVAC 1
     Supply Air Path Component Nodes,53,AIRLOOPHVAC:ZONESPLITTER,AIR LOOP HVAC ZONE SPLITTER 1,NODE 118,NODE 399,AIR LOOP HVAC 1
     Supply Air Path Component Nodes,54,AIRLOOPHVAC:ZONESPLITTER,AIR LOOP HVAC ZONE SPLITTER 1,NODE 118,NODE 404,AIR LOOP HVAC 1
     Supply Air Path Component Nodes,55,AIRLOOPHVAC:ZONESPLITTER,AIR LOOP HVAC ZONE SPLITTER 1,NODE 118,NODE 409,AIR LOOP HVAC 1
     Supply Air Path Component Nodes,56,AIRLOOPHVAC:ZONESPLITTER,AIR LOOP HVAC ZONE SPLITTER 1,NODE 118,NODE 414,AIR LOOP HVAC 1
     Supply Air Path Component Nodes,57,AIRLOOPHVAC:ZONESPLITTER,AIR LOOP HVAC ZONE SPLITTER 1,NODE 118,NODE 419,AIR LOOP HVAC 1
     Supply Air Path Component Nodes,58,AIRLOOPHVAC:ZONESPLITTER,AIR LOOP HVAC ZONE SPLITTER 1,NODE 118,NODE 424,AIR LOOP HVAC 1
     Supply Air Path Component Nodes,59,AIRLOOPHVAC:ZONESPLITTER,AIR LOOP HVAC ZONE SPLITTER 1,NODE 118,NODE 429,AIR LOOP HVAC 1
     Supply Air Path Component Nodes,60,AIRLOOPHVAC:ZONESPLITTER,AIR LOOP HVAC ZONE SPLITTER 1,NODE 118,NODE 434,AIR LOOP HVAC 1
     Supply Air Path Component Nodes,61,AIRLOOPHVAC:ZONESPLITTER,AIR LOOP HVAC ZONE SPLITTER 1,NODE 118,NODE 439,AIR LOOP HVAC 1
     Supply Air Path Component Nodes,62,AIRLOOPHVAC:ZONESPLITTER,AIR LOOP HVAC ZONE SPLITTER 1,NODE 118,NODE 444,AIR LOOP HVAC 1
     Supply Air Path Component Nodes,63,AIRLOOPHVAC:ZONESPLITTER,AIR LOOP HVAC ZONE SPLITTER 1,NODE 118,NODE 449,AIR LOOP HVAC 1
     Supply Air Path Component Nodes,64,AIRLOOPHVAC:ZONESPLITTER,AIR LOOP HVAC ZONE SPLITTER 1,NODE 118,NODE 454,AIR LOOP HVAC 1
     Supply Air Path Component Nodes,65,AIRLOOPHVAC:ZONESPLITTER,AIR LOOP HVAC ZONE SPLITTER 1,NODE 118,NODE 459,AIR LOOP HVAC 1
     Supply Air Path Component Nodes,66,AIRLOOPHVAC:ZONESPLITTER,AIR LOOP HVAC ZONE SPLITTER 1,NODE 118,NODE 464,AIR LOOP HVAC 1
     Supply Air Path Component Nodes,67,AIRLOOPHVAC:ZONESPLITTER,AIR LOOP HVAC ZONE SPLITTER 1,NODE 118,NODE 469,AIR LOOP HVAC 1
     Supply Air Path Component Nodes,68,AIRLOOPHVAC:ZONESPLITTER,AIR LOOP HVAC ZONE SPLITTER 1,NODE 118,NODE 474,AIR LOOP HVAC 1
     Supply Air Path Component Nodes,69,AIRLOOPHVAC:ZONESPLITTER,AIR LOOP HVAC ZONE SPLITTER 1,NODE 118,NODE 479,AIR LOOP HVAC 1
     Supply Air Path Component Nodes,70,AIRLOOPHVAC:ZONESPLITTER,AIR LOOP HVAC ZONE SPLITTER 1,NODE 118,NODE 484,AIR LOOP HVAC 1
     Supply Air Path Component Nodes,71,AIRLOOPHVAC:ZONESPLITTER,AIR LOOP HVAC ZONE SPLITTER 1,NODE 118,NODE 489,AIR LOOP HVAC 1
     Supply Air Path Component Nodes,72,AIRLOOPHVAC:ZONESPLITTER,AIR LOOP HVAC ZONE SPLITTER 1,NODE 118,NODE 494,AIR LOOP HVAC 1
     Supply Air Path Component Nodes,73,AIRLOOPHVAC:ZONESPLITTER,AIR LOOP HVAC ZONE SPLITTER 1,NODE 118,NODE 499,AIR LOOP HVAC 1
     Supply Air Path Component Nodes,74,AIRLOOPHVAC:ZONESPLITTER,AIR LOOP HVAC ZONE SPLITTER 1,NODE 118,NODE 504,AIR LOOP HVAC 1
     Supply Air Path Component Nodes,75,AIRLOOPHVAC:ZONESPLITTER,AIR LOOP HVAC ZONE SPLITTER 1,NODE 118,NODE 509,AIR LOOP HVAC 1
     Supply Air Path Component Nodes,76,AIRLOOPHVAC:ZONESPLITTER,AIR LOOP HVAC ZONE SPLITTER 1,NODE 118,NODE 514,AIR LOOP HVAC 1
     Supply Air Path Component Nodes,77,AIRLOOPHVAC:ZONESPLITTER,AIR LOOP HVAC ZONE SPLITTER 1,NODE 118,NODE 519,AIR LOOP HVAC 1
     Supply Air Path Component Nodes,78,AIRLOOPHVAC:ZONESPLITTER,AIR LOOP HVAC ZONE SPLITTER 1,NODE 118,NODE 524,AIR LOOP HVAC 1
     Supply Air Path Component Nodes,79,AIRLOOPHVAC:ZONESPLITTER,AIR LOOP HVAC ZONE SPLITTER 1,NODE 118,NODE 529,AIR LOOP HVAC 1
     Supply Air Path Component Nodes,80,AIRLOOPHVAC:ZONESPLITTER,AIR LOOP HVAC ZONE SPLITTER 1,NODE 118,NODE 534,AIR LOOP HVAC 1
     Supply Air Path Component Nodes,81,AIRLOOPHVAC:ZONESPLITTER,AIR LOOP HVAC ZONE SPLITTER 1,NODE 118,NODE 539,AIR LOOP HVAC 1
     Supply Air Path Component Nodes,82,AIRLOOPHVAC:ZONESPLITTER,AIR LOOP HVAC ZONE SPLITTER 1,NODE 118,NODE 544,AIR LOOP HVAC 1
     Supply Air Path Component Nodes,83,AIRLOOPHVAC:ZONESPLITTER,AIR LOOP HVAC ZONE SPLITTER 1,NODE 118,NODE 549,AIR LOOP HVAC 1
     Supply Air Path Component Nodes,84,AIRLOOPHVAC:ZONESPLITTER,AIR LOOP HVAC ZONE SPLITTER 1,NODE 118,NODE 554,AIR LOOP HVAC 1
     Supply Air Path Component Nodes,85,AIRLOOPHVAC:ZONESPLITTER,AIR LOOP HVAC ZONE SPLITTER 1,NODE 118,NODE 559,AIR LOOP HVAC 1
     Supply Air Path Component Nodes,86,AIRLOOPHVAC:ZONESPLITTER,AIR LOOP HVAC ZONE SPLITTER 1,NODE 118,NODE 564,AIR LOOP HVAC 1
     Supply Air Path Component Nodes,87,AIRLOOPHVAC:ZONESPLITTER,AIR LOOP HVAC ZONE SPLITTER 1,NODE 118,NODE 569,AIR LOOP HVAC 1
     Supply Air Path Component Nodes,88,AIRLOOPHVAC:ZONESPLITTER,AIR LOOP HVAC ZONE SPLITTER 1,NODE 118,NODE 574,AIR LOOP HVAC 1
     Supply Air Path Component Nodes,89,AIRLOOPHVAC:ZONESPLITTER,AIR LOOP HVAC ZONE SPLITTER 1,NODE 118,NODE 579,AIR LOOP HVAC 1
     Supply Air Path Component Nodes,90,AIRLOOPHVAC:ZONESPLITTER,AIR LOOP HVAC ZONE SPLITTER 1,NODE 118,NODE 584,AIR LOOP HVAC 1
     Supply Air Path Component Nodes,91,AIRLOOPHVAC:ZONESPLITTER,AIR LOOP HVAC ZONE SPLITTER 1,NODE 118,NODE 589,AIR LOOP HVAC 1
     Supply Air Path Component Nodes,92,AIRLOOPHVAC:ZONESPLITTER,AIR LOOP HVAC ZONE SPLITTER 1,NODE 118,NODE 594,AIR LOOP HVAC 1
     Supply Air Path Component Nodes,93,AIRLOOPHVAC:ZONESPLITTER,AIR LOOP HVAC ZONE SPLITTER 1,NODE 118,NODE 599,AIR LOOP HVAC 1
     Supply Air Path Component Nodes,94,AIRLOOPHVAC:ZONESPLITTER,AIR LOOP HVAC ZONE SPLITTER 1,NODE 118,NODE 604,AIR LOOP HVAC 1
     Supply Air Path Component Nodes,95,AIRLOOPHVAC:ZONESPLITTER,AIR LOOP HVAC ZONE SPLITTER 1,NODE 118,NODE 609,AIR LOOP HVAC 1
     Supply Air Path Component Nodes,96,AIRLOOPHVAC:ZONESPLITTER,AIR LOOP HVAC ZONE SPLITTER 1,NODE 118,NODE 614,AIR LOOP HVAC 1
     Supply Air Path Component Nodes,97,AIRLOOPHVAC:ZONESPLITTER,AIR LOOP HVAC ZONE SPLITTER 1,NODE 118,NODE 619,AIR LOOP HVAC 1
     Supply Air Path Component Nodes,98,AIRLOOPHVAC:ZONESPLITTER,AIR LOOP HVAC ZONE SPLITTER 1,NODE 118,NODE 624,AIR LOOP HVAC 1
     Supply Air Path Component Nodes,99,AIRLOOPHVAC:ZONESPLITTER,AIR LOOP HVAC ZONE SPLITTER 1,NODE 118,NODE 629,AIR LOOP HVAC 1
     Supply Air Path Component Nodes,100,AIRLOOPHVAC:ZONESPLITTER,AIR LOOP HVAC ZONE SPLITTER 1,NODE 118,NODE 634,AIR LOOP HVAC 1
     Supply Air Path Component Nodes,101,AIRLOOPHVAC:ZONESPLITTER,AIR LOOP HVAC ZONE SPLITTER 1,NODE 118,NODE 639,AIR LOOP HVAC 1
     Supply Air Path Component Nodes,102,AIRLOOPHVAC:ZONESPLITTER,AIR LOOP HVAC ZONE SPLITTER 1,NODE 118,NODE 644,AIR LOOP HVAC 1
     Supply Air Path Component Nodes,103,AIRLOOPHVAC:ZONESPLITTER,AIR LOOP HVAC ZONE SPLITTER 1,NODE 118,NODE 649,AIR LOOP HVAC 1
     Supply Air Path Component Nodes,104,AIRLOOPHVAC:ZONESPLITTER,AIR LOOP HVAC ZONE SPLITTER 1,NODE 118,NODE 654,AIR LOOP HVAC 1
     Supply Air Path Component Nodes,105,AIRLOOPHVAC:ZONESPLITTER,AIR LOOP HVAC ZONE SPLITTER 1,NODE 118,NODE 659,AIR LOOP HVAC 1
     Supply Air Path Component Nodes,106,AIRLOOPHVAC:ZONESPLITTER,AIR LOOP HVAC ZONE SPLITTER 1,NODE 118,NODE 664,AIR LOOP HVAC 1
     Supply Air Path Component Nodes,107,AIRLOOPHVAC:ZONESPLITTER,AIR LOOP HVAC ZONE SPLITTER 1,NODE 118,NODE 669,AIR LOOP HVAC 1
     Supply Air Path Component Nodes,108,AIRLOOPHVAC:ZONESPLITTER,AIR LOOP HVAC ZONE SPLITTER 1,NODE 118,NODE 674,AIR LOOP HVAC 1
     Supply Air Path Component Nodes,109,AIRLOOPHVAC:ZONESPLITTER,AIR LOOP HVAC ZONE SPLITTER 1,NODE 118,NODE 679,AIR LOOP HVAC 1
     Supply Air Path Component Nodes,110,AIRLOOPHVAC:ZONESPLITTER,AIR LOOP HVAC ZONE SPLITTER 1,NODE 118,NODE 684,AIR LOOP HVAC 1
     Supply Air Path Component Nodes,111,AIRLOOPHVAC:ZONESPLITTER,AIR LOOP HVAC ZONE SPLITTER 1,NODE 118,NODE 689,AIR LOOP HVAC 1
     Supply Air Path Component Nodes,112,AIRLOOPHVAC:ZONESPLITTER,AIR LOOP HVAC ZONE SPLITTER 1,NODE 118,NODE 694,AIR LOOP HVAC 1
     Supply Air Path Component Nodes,113,AIRLOOPHVAC:ZONESPLITTER,AIR LOOP HVAC ZONE SPLITTER 1,NODE 118,NODE 699,AIR LOOP HVAC 1
     Supply Air Path Component Nodes,114,AIRLOOPHVAC:ZONESPLITTER,AIR LOOP HVAC ZONE SPLITTER 1,NODE 118,NODE 704,AIR LOOP HVAC 1
     Supply Air Path Component Nodes,115,AIRLOOPHVAC:ZONESPLITTER,AIR LOOP HVAC ZONE SPLITTER 1,NODE 118,NODE 709,AIR LOOP HVAC 1
! <#Nodes on Supply Air Path>,<Number of Nodes>
! <Supply Air Path Node>,<Node Type>,<Node Count>,<Node Name>,<AirLoopHVAC Name>
#Nodes on Supply Air Path,116
   Supply Air Path Node,Inlet Node,1,NODE 118,AIR LOOP HVAC 1
   Supply Air Path Node,Outlet Node,2,NODE 139,AIR LOOP HVAC 1
   Supply Air Path Node,Outlet Node,3,NODE 144,AIR LOOP HVAC 1
   Supply Air Path Node,Outlet Node,4,NODE 149,AIR LOOP HVAC 1
   Supply Air Path Node,Outlet Node,5,NODE 154,AIR LOOP HVAC 1
   Supply Air Path Node,Outlet Node,6,NODE 159,AIR LOOP HVAC 1
   Supply Air Path Node,Outlet Node,7,NODE 164,AIR LOOP HVAC 1
   Supply Air Path Node,Outlet Node,8,NODE 169,AIR LOOP HVAC 1
   Supply Air Path Node,Outlet Node,9,NODE 174,AIR LOOP HVAC 1
   Supply Air Path Node,Outlet Node,10,NODE 179,AIR LOOP HVAC 1
   Supply Air Path Node,Outlet Node,11,NODE 184,AIR LOOP HVAC 1
   Supply Air Path Node,Outlet Node,12,NODE 189,AIR LOOP HVAC 1
   Supply Air Path Node,Outlet Node,13,NODE 194,AIR LOOP HVAC 1
   Supply Air Path Node,Outlet Node,14,NODE 199,AIR LOOP HVAC 1
   Supply Air Path Node,Outlet Node,15,NODE 204,AIR LOOP HVAC 1
   Supply Air Path Node,Outlet Node,16,NODE 209,AIR LOOP HVAC 1
   Supply Air Path Node,Outlet Node,17,NODE 214,AIR LOOP HVAC 1
   Supply Air Path Node,Outlet Node,18,NODE 219,AIR LOOP HVAC 1
   Supply Air Path Node,Outlet Node,19,NODE 224,AIR LOOP HVAC 1
   Supply Air Path Node,Outlet Node,20,NODE 229,AIR LOOP HVAC 1
   Supply Air Path Node,Outlet Node,21,NODE 234,AIR LOOP HVAC 1
   Supply Air Path Node,Outlet Node,22,NODE 239,AIR LOOP HVAC 1
   Supply Air Path Node,Outlet Node,23,NODE 244,AIR LOOP HVAC 1
   Supply Air Path Node,Outlet Node,24,NODE 249,AIR LOOP HVAC 1
   Supply Air Path Node,Outlet Node,25,NODE 254,AIR LOOP HVAC 1
   Supply Air Path Node,Outlet Node,26,NODE 259,AIR LOOP HVAC 1
   Supply Air Path Node,Outlet Node,27,NODE 264,AIR LOOP HVAC 1
   Supply Air Path Node,Outlet Node,28,NODE 269,AIR LOOP HVAC 1
   Supply Air Path Node,Outlet Node,29,NODE 274,AIR LOOP HVAC 1
   Supply Air Path Node,Outlet Node,30,NODE 279,AIR LOOP HVAC 1
   Supply Air Path Node,Outlet Node,31,NODE 284,AIR LOOP HVAC 1
   Supply Air Path Node,Outlet Node,32,NODE 289,AIR LOOP HVAC 1
   Supply Air Path Node,Outlet Node,33,NODE 294,AIR LOOP HVAC 1
   Supply Air Path Node,Outlet Node,34,NODE 299,AIR LOOP HVAC 1
   Supply Air Path Node,Outlet Node,35,NODE 304,AIR LOOP HVAC 1
   Supply Air Path Node,Outlet Node,36,NODE 309,AIR LOOP HVAC 1
   Supply Air Path Node,Outlet Node,37,NODE 314,AIR LOOP HVAC 1
   Supply Air Path Node,Outlet Node,38,NODE 319,AIR LOOP HVAC 1
   Supply Air Path Node,Outlet Node,39,NODE 324,AIR LOOP HVAC 1
   Supply Air Path Node,Outlet Node,40,NODE 329,AIR LOOP HVAC 1
   Supply Air Path Node,Outlet Node,41,NODE 334,AIR LOOP HVAC 1
   Supply Air Path Node,Outlet Node,42,NODE 339,AIR LOOP HVAC 1
   Supply Air Path Node,Outlet Node,43,NODE 344,AIR LOOP HVAC 1
   Supply Air Path Node,Outlet Node,44,NODE 349,AIR LOOP HVAC 1
   Supply Air Path Node,Outlet Node,45,NODE 354,AIR LOOP HVAC 1
   Supply Air Path Node,Outlet Node,46,NODE 359,AIR LOOP HVAC 1
   Supply Air Path Node,Outlet Node,47,NODE 364,AIR LOOP HVAC 1
   Supply Air Path Node,Outlet Node,48,NODE 369,AIR LOOP HVAC 1
   Supply Air Path Node,Outlet Node,49,NODE 374,AIR LOOP HVAC 1
   Supply Air Path Node,Outlet Node,50,NODE 379,AIR LOOP HVAC 1
   Supply Air Path Node,Outlet Node,51,NODE 384,AIR LOOP HVAC 1
   Supply Air Path Node,Outlet Node,52,NODE 389,AIR LOOP HVAC 1
   Supply Air Path Node,Outlet Node,53,NODE 394,AIR LOOP HVAC 1
   Supply Air Path Node,Outlet Node,54,NODE 399,AIR LOOP HVAC 1
   Supply Air Path Node,Outlet Node,55,NODE 404,AIR LOOP HVAC 1
   Supply Air Path Node,Outlet Node,56,NODE 409,AIR LOOP HVAC 1
   Supply Air Path Node,Outlet Node,57,NODE 414,AIR LOOP HVAC 1
   Supply Air Path Node,Outlet Node,58,NODE 419,AIR LOOP HVAC 1
   Supply Air Path Node,Outlet Node,59,NODE 424,AIR LOOP HVAC 1
   Supply Air Path Node,Outlet Node,60,NODE 429,AIR LOOP HVAC 1
   Supply Air Path Node,Outlet Node,61,NODE 434,AIR LOOP HVAC 1
   Supply Air Path Node,Outlet Node,62,NODE 439,AIR LOOP HVAC 1
   Supply Air Path Node,Outlet Node,63,NODE 444,AIR LOOP HVAC 1
   Supply Air Path Node,Outlet Node,64,NODE 449,AIR LOOP HVAC 1
   Supply Air Path Node,Outlet Node,65,NODE 454,AIR LOOP HVAC 1
   Supply Air Path Node,Outlet Node,66,NODE 459,AIR LOOP HVAC 1
   Supply Air Path Node,Outlet Node,67,NODE 464,AIR LOOP HVAC 1
   Supply Air Path Node,Outlet Node,68,NODE 469,AIR LOOP HVAC 1
   Supply Air Path Node,Outlet Node,69,NODE 474,AIR LOOP HVAC 1
   Supply Air Path Node,Outlet Node,70,NODE 479,AIR LOOP HVAC 1
   Supply Air Path Node,Outlet Node,71,NODE 484,AIR LOOP HVAC 1
   Supply Air Path Node,Outlet Node,72,NODE 489,AIR LOOP HVAC 1
   Supply Air Path Node,Outlet Node,73,NODE 494,AIR LOOP HVAC 1
   Supply Air Path Node,Outlet Node,74,NODE 499,AIR LOOP HVAC 1
   Supply Air Path Node,Outlet Node,75,NODE 504,AIR LOOP HVAC 1
   Supply Air Path Node,Outlet Node,76,NODE 509,AIR LOOP HVAC 1
   Supply Air Path Node,Outlet Node,77,NODE 514,AIR LOOP HVAC 1
   Supply Air Path Node,Outlet Node,78,NODE 519,AIR LOOP HVAC 1
   Supply Air Path Node,Outlet Node,79,NODE 524,AIR LOOP HVAC 1
   Supply Air Path Node,Outlet Node,80,NODE 529,AIR LOOP HVAC 1
   Supply Air Path Node,Outlet Node,81,NODE 534,AIR LOOP HVAC 1
   Supply Air Path Node,Outlet Node,82,NODE 539,AIR LOOP HVAC 1
   Supply Air Path Node,Outlet Node,83,NODE 544,AIR LOOP HVAC 1
   Supply Air Path Node,Outlet Node,84,NODE 549,AIR LOOP HVAC 1
   Supply Air Path Node,Outlet Node,85,NODE 554,AIR LOOP HVAC 1
   Supply Air Path Node,Outlet Node,86,NODE 559,AIR LOOP HVAC 1
   Supply Air Path Node,Outlet Node,87,NODE 564,AIR LOOP HVAC 1
   Supply Air Path Node,Outlet Node,88,NODE 569,AIR LOOP HVAC 1
   Supply Air Path Node,Outlet Node,89,NODE 574,AIR LOOP HVAC 1
   Supply Air Path Node,Outlet Node,90,NODE 579,AIR LOOP HVAC 1
   Supply Air Path Node,Outlet Node,91,NODE 584,AIR LOOP HVAC 1
   Supply Air Path Node,Outlet Node,92,NODE 589,AIR LOOP HVAC 1
   Supply Air Path Node,Outlet Node,93,NODE 594,AIR LOOP HVAC 1
   Supply Air Path Node,Outlet Node,94,NODE 599,AIR LOOP HVAC 1
   Supply Air Path Node,Outlet Node,95,NODE 604,AIR LOOP HVAC 1
   Supply Air Path Node,Outlet Node,96,NODE 609,AIR LOOP HVAC 1
   Supply Air Path Node,Outlet Node,97,NODE 614,AIR LOOP HVAC 1
   Supply Air Path Node,Outlet Node,98,NODE 619,AIR LOOP HVAC 1
   Supply Air Path Node,Outlet Node,99,NODE 624,AIR LOOP HVAC 1
   Supply Air Path Node,Outlet Node,100,NODE 629,AIR LOOP HVAC 1
   Supply Air Path Node,Outlet Node,101,NODE 634,AIR LOOP HVAC 1
   Supply Air Path Node,Outlet Node,102,NODE 639,AIR LOOP HVAC 1
   Supply Air Path Node,Outlet Node,103,NODE 644,AIR LOOP HVAC 1
   Supply Air Path Node,Outlet Node,104,NODE 649,AIR LOOP HVAC 1
   Supply Air Path Node,Outlet Node,105,NODE 654,AIR LOOP HVAC 1
   Supply Air Path Node,Outlet Node,106,NODE 659,AIR LOOP HVAC 1
   Supply Air Path Node,Outlet Node,107,NODE 664,AIR LOOP HVAC 1
   Supply Air Path Node,Outlet Node,108,NODE 669,AIR LOOP HVAC 1
   Supply Air Path Node,Outlet Node,109,NODE 674,AIR LOOP HVAC 1
   Supply Air Path Node,Outlet Node,110,NODE 679,AIR LOOP HVAC 1
   Supply Air Path Node,Outlet Node,111,NODE 684,AIR LOOP HVAC 1
   Supply Air Path Node,Outlet Node,112,NODE 689,AIR LOOP HVAC 1
   Supply Air Path Node,Outlet Node,113,NODE 694,AIR LOOP HVAC 1
   Supply Air Path Node,Outlet Node,114,NODE 699,AIR LOOP HVAC 1
   Supply Air Path Node,Outlet Node,115,NODE 704,AIR LOOP HVAC 1
   Supply Air Path Node,Outlet Node,116,NODE 709,AIR LOOP HVAC 1
! ===============================================================
! <#Return Air Paths>,<Number of Return Air Paths>
 #Return Air Paths,1
! <Return Air Path>,<Return Air Path Count>,<Return Air Path Name>,<AirLoopHVAC Name>
! <#Components on Return Air Path>,<Number of Components>
! <Return Air Path Component>,<Component Count>,<Component Type>,<Component Name>,<AirLoopHVAC Name>
! <#Inlet Nodes on Return Air Path Component>,<Number of Nodes>
! <Return Air Path Component Nodes>,<Node Count>,<Component Type>,<Component Name>,<Inlet Node Name>,<Outlet Node Name>,<AirLoopHVAC Name>
 Return Air Path,1,AIRLOOPHVAC:RETURNPATH {CC28B66C-DFF6-4D11-BE3C-D9E8E3548BAB},AIR LOOP HVAC 1
   #Components on Return Air Path,1
   Return Air Path Component,1,AIRLOOPHVAC:ZONEMIXER,AIR LOOP HVAC ZONE MIXER 1,AIR LOOP HVAC 1
     #Inlet Nodes on Return Air Path Component,115
     Return Air Path Component Nodes,1,AIRLOOPHVAC:ZONEMIXER,AIR LOOP HVAC ZONE MIXER 1,NODE 138,NODE 119,AIR LOOP HVAC 1
     Return Air Path Component Nodes,2,AIRLOOPHVAC:ZONEMIXER,AIR LOOP HVAC ZONE MIXER 1,NODE 143,NODE 119,AIR LOOP HVAC 1
     Return Air Path Component Nodes,3,AIRLOOPHVAC:ZONEMIXER,AIR LOOP HVAC ZONE MIXER 1,NODE 148,NODE 119,AIR LOOP HVAC 1
     Return Air Path Component Nodes,4,AIRLOOPHVAC:ZONEMIXER,AIR LOOP HVAC ZONE MIXER 1,NODE 153,NODE 119,AIR LOOP HVAC 1
     Return Air Path Component Nodes,5,AIRLOOPHVAC:ZONEMIXER,AIR LOOP HVAC ZONE MIXER 1,NODE 158,NODE 119,AIR LOOP HVAC 1
     Return Air Path Component Nodes,6,AIRLOOPHVAC:ZONEMIXER,AIR LOOP HVAC ZONE MIXER 1,NODE 163,NODE 119,AIR LOOP HVAC 1
     Return Air Path Component Nodes,7,AIRLOOPHVAC:ZONEMIXER,AIR LOOP HVAC ZONE MIXER 1,NODE 168,NODE 119,AIR LOOP HVAC 1
     Return Air Path Component Nodes,8,AIRLOOPHVAC:ZONEMIXER,AIR LOOP HVAC ZONE MIXER 1,NODE 173,NODE 119,AIR LOOP HVAC 1
     Return Air Path Component Nodes,9,AIRLOOPHVAC:ZONEMIXER,AIR LOOP HVAC ZONE MIXER 1,NODE 178,NODE 119,AIR LOOP HVAC 1
     Return Air Path Component Nodes,10,AIRLOOPHVAC:ZONEMIXER,AIR LOOP HVAC ZONE MIXER 1,NODE 183,NODE 119,AIR LOOP HVAC 1
     Return Air Path Component Nodes,11,AIRLOOPHVAC:ZONEMIXER,AIR LOOP HVAC ZONE MIXER 1,NODE 188,NODE 119,AIR LOOP HVAC 1
     Return Air Path Component Nodes,12,AIRLOOPHVAC:ZONEMIXER,AIR LOOP HVAC ZONE MIXER 1,NODE 193,NODE 119,AIR LOOP HVAC 1
     Return Air Path Component Nodes,13,AIRLOOPHVAC:ZONEMIXER,AIR LOOP HVAC ZONE MIXER 1,NODE 198,NODE 119,AIR LOOP HVAC 1
     Return Air Path Component Nodes,14,AIRLOOPHVAC:ZONEMIXER,AIR LOOP HVAC ZONE MIXER 1,NODE 203,NODE 119,AIR LOOP HVAC 1
     Return Air Path Component Nodes,15,AIRLOOPHVAC:ZONEMIXER,AIR LOOP HVAC ZONE MIXER 1,NODE 208,NODE 119,AIR LOOP HVAC 1
     Return Air Path Component Nodes,16,AIRLOOPHVAC:ZONEMIXER,AIR LOOP HVAC ZONE MIXER 1,NODE 213,NODE 119,AIR LOOP HVAC 1
     Return Air Path Component Nodes,17,AIRLOOPHVAC:ZONEMIXER,AIR LOOP HVAC ZONE MIXER 1,NODE 218,NODE 119,AIR LOOP HVAC 1
     Return Air Path Component Nodes,18,AIRLOOPHVAC:ZONEMIXER,AIR LOOP HVAC ZONE MIXER 1,NODE 223,NODE 119,AIR LOOP HVAC 1
     Return Air Path Component Nodes,19,AIRLOOPHVAC:ZONEMIXER,AIR LOOP HVAC ZONE MIXER 1,NODE 228,NODE 119,AIR LOOP HVAC 1
     Return Air Path Component Nodes,20,AIRLOOPHVAC:ZONEMIXER,AIR LOOP HVAC ZONE MIXER 1,NODE 233,NODE 119,AIR LOOP HVAC 1
     Return Air Path Component Nodes,21,AIRLOOPHVAC:ZONEMIXER,AIR LOOP HVAC ZONE MIXER 1,NODE 238,NODE 119,AIR LOOP HVAC 1
     Return Air Path Component Nodes,22,AIRLOOPHVAC:ZONEMIXER,AIR LOOP HVAC ZONE MIXER 1,NODE 243,NODE 119,AIR LOOP HVAC 1
     Return Air Path Component Nodes,23,AIRLOOPHVAC:ZONEMIXER,AIR LOOP HVAC ZONE MIXER 1,NODE 248,NODE 119,AIR LOOP HVAC 1
     Return Air Path Component Nodes,24,AIRLOOPHVAC:ZONEMIXER,AIR LOOP HVAC ZONE MIXER 1,NODE 253,NODE 119,AIR LOOP HVAC 1
     Return Air Path Component Nodes,25,AIRLOOPHVAC:ZONEMIXER,AIR LOOP HVAC ZONE MIXER 1,NODE 258,NODE 119,AIR LOOP HVAC 1
     Return Air Path Component Nodes,26,AIRLOOPHVAC:ZONEMIXER,AIR LOOP HVAC ZONE MIXER 1,NODE 263,NODE 119,AIR LOOP HVAC 1
     Return Air Path Component Nodes,27,AIRLOOPHVAC:ZONEMIXER,AIR LOOP HVAC ZONE MIXER 1,NODE 268,NODE 119,AIR LOOP HVAC 1
     Return Air Path Component Nodes,28,AIRLOOPHVAC:ZONEMIXER,AIR LOOP HVAC ZONE MIXER 1,NODE 273,NODE 119,AIR LOOP HVAC 1
     Return Air Path Component Nodes,29,AIRLOOPHVAC:ZONEMIXER,AIR LOOP HVAC ZONE MIXER 1,NODE 278,NODE 119,AIR LOOP HVAC 1
     Return Air Path Component Nodes,30,AIRLOOPHVAC:ZONEMIXER,AIR LOOP HVAC ZONE MIXER 1,NODE 283,NODE 119,AIR LOOP HVAC 1
     Return Air Path Component Nodes,31,AIRLOOPHVAC:ZONEMIXER,AIR LOOP HVAC ZONE MIXER 1,NODE 288,NODE 119,AIR LOOP HVAC 1
     Return Air Path Component Nodes,32,AIRLOOPHVAC:ZONEMIXER,AIR LOOP HVAC ZONE MIXER 1,NODE 293,NODE 119,AIR LOOP HVAC 1
     Return Air Path Component Nodes,33,AIRLOOPHVAC:ZONEMIXER,AIR LOOP HVAC ZONE MIXER 1,NODE 298,NODE 119,AIR LOOP HVAC 1
     Return Air Path Component Nodes,34,AIRLOOPHVAC:ZONEMIXER,AIR LOOP HVAC ZONE MIXER 1,NODE 303,NODE 119,AIR LOOP HVAC 1
     Return Air Path Component Nodes,35,AIRLOOPHVAC:ZONEMIXER,AIR LOOP HVAC ZONE MIXER 1,NODE 308,NODE 119,AIR LOOP HVAC 1
     Return Air Path Component Nodes,36,AIRLOOPHVAC:ZONEMIXER,AIR LOOP HVAC ZONE MIXER 1,NODE 313,NODE 119,AIR LOOP HVAC 1
     Return Air Path Component Nodes,37,AIRLOOPHVAC:ZONEMIXER,AIR LOOP HVAC ZONE MIXER 1,NODE 318,NODE 119,AIR LOOP HVAC 1
     Return Air Path Component Nodes,38,AIRLOOPHVAC:ZONEMIXER,AIR LOOP HVAC ZONE MIXER 1,NODE 323,NODE 119,AIR LOOP HVAC 1
     Return Air Path Component Nodes,39,AIRLOOPHVAC:ZONEMIXER,AIR LOOP HVAC ZONE MIXER 1,NODE 328,NODE 119,AIR LOOP HVAC 1
     Return Air Path Component Nodes,40,AIRLOOPHVAC:ZONEMIXER,AIR LOOP HVAC ZONE MIXER 1,NODE 333,NODE 119,AIR LOOP HVAC 1
     Return Air Path Component Nodes,41,AIRLOOPHVAC:ZONEMIXER,AIR LOOP HVAC ZONE MIXER 1,NODE 338,NODE 119,AIR LOOP HVAC 1
     Return Air Path Component Nodes,42,AIRLOOPHVAC:ZONEMIXER,AIR LOOP HVAC ZONE MIXER 1,NODE 343,NODE 119,AIR LOOP HVAC 1
     Return Air Path Component Nodes,43,AIRLOOPHVAC:ZONEMIXER,AIR LOOP HVAC ZONE MIXER 1,NODE 348,NODE 119,AIR LOOP HVAC 1
     Return Air Path Component Nodes,44,AIRLOOPHVAC:ZONEMIXER,AIR LOOP HVAC ZONE MIXER 1,NODE 353,NODE 119,AIR LOOP HVAC 1
     Return Air Path Component Nodes,45,AIRLOOPHVAC:ZONEMIXER,AIR LOOP HVAC ZONE MIXER 1,NODE 358,NODE 119,AIR LOOP HVAC 1
     Return Air Path Component Nodes,46,AIRLOOPHVAC:ZONEMIXER,AIR LOOP HVAC ZONE MIXER 1,NODE 363,NODE 119,AIR LOOP HVAC 1
     Return Air Path Component Nodes,47,AIRLOOPHVAC:ZONEMIXER,AIR LOOP HVAC ZONE MIXER 1,NODE 368,NODE 119,AIR LOOP HVAC 1
     Return Air Path Component Nodes,48,AIRLOOPHVAC:ZONEMIXER,AIR LOOP HVAC ZONE MIXER 1,NODE 373,NODE 119,AIR LOOP HVAC 1
     Return Air Path Component Nodes,49,AIRLOOPHVAC:ZONEMIXER,AIR LOOP HVAC ZONE MIXER 1,NODE 378,NODE 119,AIR LOOP HVAC 1
     Return Air Path Component Nodes,50,AIRLOOPHVAC:ZONEMIXER,AIR LOOP HVAC ZONE MIXER 1,NODE 383,NODE 119,AIR LOOP HVAC 1
     Return Air Path Component Nodes,51,AIRLOOPHVAC:ZONEMIXER,AIR LOOP HVAC ZONE MIXER 1,NODE 388,NODE 119,AIR LOOP HVAC 1
     Return Air Path Component Nodes,52,AIRLOOPHVAC:ZONEMIXER,AIR LOOP HVAC ZONE MIXER 1,NODE 393,NODE 119,AIR LOOP HVAC 1
     Return Air Path Component Nodes,53,AIRLOOPHVAC:ZONEMIXER,AIR LOOP HVAC ZONE MIXER 1,NODE 398,NODE 119,AIR LOOP HVAC 1
     Return Air Path Component Nodes,54,AIRLOOPHVAC:ZONEMIXER,AIR LOOP HVAC ZONE MIXER 1,NODE 403,NODE 119,AIR LOOP HVAC 1
     Return Air Path Component Nodes,55,AIRLOOPHVAC:ZONEMIXER,AIR LOOP HVAC ZONE MIXER 1,NODE 408,NODE 119,AIR LOOP HVAC 1
     Return Air Path Component Nodes,56,AIRLOOPHVAC:ZONEMIXER,AIR LOOP HVAC ZONE MIXER 1,NODE 413,NODE 119,AIR LOOP HVAC 1
     Return Air Path Component Nodes,57,AIRLOOPHVAC:ZONEMIXER,AIR LOOP HVAC ZONE MIXER 1,NODE 418,NODE 119,AIR LOOP HVAC 1
     Return Air Path Component Nodes,58,AIRLOOPHVAC:ZONEMIXER,AIR LOOP HVAC ZONE MIXER 1,NODE 423,NODE 119,AIR LOOP HVAC 1
     Return Air Path Component Nodes,59,AIRLOOPHVAC:ZONEMIXER,AIR LOOP HVAC ZONE MIXER 1,NODE 428,NODE 119,AIR LOOP HVAC 1
     Return Air Path Component Nodes,60,AIRLOOPHVAC:ZONEMIXER,AIR LOOP HVAC ZONE MIXER 1,NODE 433,NODE 119,AIR LOOP HVAC 1
     Return Air Path Component Nodes,61,AIRLOOPHVAC:ZONEMIXER,AIR LOOP HVAC ZONE MIXER 1,NODE 438,NODE 119,AIR LOOP HVAC 1
     Return Air Path Component Nodes,62,AIRLOOPHVAC:ZONEMIXER,AIR LOOP HVAC ZONE MIXER 1,NODE 443,NODE 119,AIR LOOP HVAC 1
     Return Air Path Component Nodes,63,AIRLOOPHVAC:ZONEMIXER,AIR LOOP HVAC ZONE MIXER 1,NODE 448,NODE 119,AIR LOOP HVAC 1
     Return Air Path Component Nodes,64,AIRLOOPHVAC:ZONEMIXER,AIR LOOP HVAC ZONE MIXER 1,NODE 453,NODE 119,AIR LOOP HVAC 1
     Return Air Path Component Nodes,65,AIRLOOPHVAC:ZONEMIXER,AIR LOOP HVAC ZONE MIXER 1,NODE 458,NODE 119,AIR LOOP HVAC 1
     Return Air Path Component Nodes,66,AIRLOOPHVAC:ZONEMIXER,AIR LOOP HVAC ZONE MIXER 1,NODE 463,NODE 119,AIR LOOP HVAC 1
     Return Air Path Component Nodes,67,AIRLOOPHVAC:ZONEMIXER,AIR LOOP HVAC ZONE MIXER 1,NODE 468,NODE 119,AIR LOOP HVAC 1
     Return Air Path Component Nodes,68,AIRLOOPHVAC:ZONEMIXER,AIR LOOP HVAC ZONE MIXER 1,NODE 473,NODE 119,AIR LOOP HVAC 1
     Return Air Path Component Nodes,69,AIRLOOPHVAC:ZONEMIXER,AIR LOOP HVAC ZONE MIXER 1,NODE 478,NODE 119,AIR LOOP HVAC 1
     Return Air Path Component Nodes,70,AIRLOOPHVAC:ZONEMIXER,AIR LOOP HVAC ZONE MIXER 1,NODE 483,NODE 119,AIR LOOP HVAC 1
     Return Air Path Component Nodes,71,AIRLOOPHVAC:ZONEMIXER,AIR LOOP HVAC ZONE MIXER 1,NODE 488,NODE 119,AIR LOOP HVAC 1
     Return Air Path Component Nodes,72,AIRLOOPHVAC:ZONEMIXER,AIR LOOP HVAC ZONE MIXER 1,NODE 493,NODE 119,AIR LOOP HVAC 1
     Return Air Path Component Nodes,73,AIRLOOPHVAC:ZONEMIXER,AIR LOOP HVAC ZONE MIXER 1,NODE 498,NODE 119,AIR LOOP HVAC 1
     Return Air Path Component Nodes,74,AIRLOOPHVAC:ZONEMIXER,AIR LOOP HVAC ZONE MIXER 1,NODE 503,NODE 119,AIR LOOP HVAC 1
     Return Air Path Component Nodes,75,AIRLOOPHVAC:ZONEMIXER,AIR LOOP HVAC ZONE MIXER 1,NODE 508,NODE 119,AIR LOOP HVAC 1
     Return Air Path Component Nodes,76,AIRLOOPHVAC:ZONEMIXER,AIR LOOP HVAC ZONE MIXER 1,NODE 513,NODE 119,AIR LOOP HVAC 1
     Return Air Path Component Nodes,77,AIRLOOPHVAC:ZONEMIXER,AIR LOOP HVAC ZONE MIXER 1,NODE 518,NODE 119,AIR LOOP HVAC 1
     Return Air Path Component Nodes,78,AIRLOOPHVAC:ZONEMIXER,AIR LOOP HVAC ZONE MIXER 1,NODE 523,NODE 119,AIR LOOP HVAC 1
     Return Air Path Component Nodes,79,AIRLOOPHVAC:ZONEMIXER,AIR LOOP HVAC ZONE MIXER 1,NODE 528,NODE 119,AIR LOOP HVAC 1
     Return Air Path Component Nodes,80,AIRLOOPHVAC:ZONEMIXER,AIR LOOP HVAC ZONE MIXER 1,NODE 533,NODE 119,AIR LOOP HVAC 1
     Return Air Path Component Nodes,81,AIRLOOPHVAC:ZONEMIXER,AIR LOOP HVAC ZONE MIXER 1,NODE 538,NODE 119,AIR LOOP HVAC 1
     Return Air Path Component Nodes,82,AIRLOOPHVAC:ZONEMIXER,AIR LOOP HVAC ZONE MIXER 1,NODE 543,NODE 119,AIR LOOP HVAC 1
     Return Air Path Component Nodes,83,AIRLOOPHVAC:ZONEMIXER,AIR LOOP HVAC ZONE MIXER 1,NODE 548,NODE 119,AIR LOOP HVAC 1
     Return Air Path Component Nodes,84,AIRLOOPHVAC:ZONEMIXER,AIR LOOP HVAC ZONE MIXER 1,NODE 553,NODE 119,AIR LOOP HVAC 1
     Return Air Path Component Nodes,85,AIRLOOPHVAC:ZONEMIXER,AIR LOOP HVAC ZONE MIXER 1,NODE 558,NODE 119,AIR LOOP HVAC 1
     Return Air Path Component Nodes,86,AIRLOOPHVAC:ZONEMIXER,AIR LOOP HVAC ZONE MIXER 1,NODE 563,NODE 119,AIR LOOP HVAC 1
     Return Air Path Component Nodes,87,AIRLOOPHVAC:ZONEMIXER,AIR LOOP HVAC ZONE MIXER 1,NODE 568,NODE 119,AIR LOOP HVAC 1
     Return Air Path Component Nodes,88,AIRLOOPHVAC:ZONEMIXER,AIR LOOP HVAC ZONE MIXER 1,NODE 573,NODE 119,AIR LOOP HVAC 1
     Return Air Path Component Nodes,89,AIRLOOPHVAC:ZONEMIXER,AIR LOOP HVAC ZONE MIXER 1,NODE 578,NODE 119,AIR LOOP HVAC 1
     Return Air Path Component Nodes,90,AIRLOOPHVAC:ZONEMIXER,AIR LOOP HVAC ZONE MIXER 1,NODE 583,NODE 119,AIR LOOP HVAC 1
     Return Air Path Component Nodes,91,AIRLOOPHVAC:ZONEMIXER,AIR LOOP HVAC ZONE MIXER 1,NODE 588,NODE 119,AIR LOOP HVAC 1
     Return Air Path Component Nodes,92,AIRLOOPHVAC:ZONEMIXER,AIR LOOP HVAC ZONE MIXER 1,NODE 593,NODE 119,AIR LOOP HVAC 1
     Return Air Path Component Nodes,93,AIRLOOPHVAC:ZONEMIXER,AIR LOOP HVAC ZONE MIXER 1,NODE 598,NODE 119,AIR LOOP HVAC 1
     Return Air Path Component Nodes,94,AIRLOOPHVAC:ZONEMIXER,AIR LOOP HVAC ZONE MIXER 1,NODE 603,NODE 119,AIR LOOP HVAC 1
     Return Air Path Component Nodes,95,AIRLOOPHVAC:ZONEMIXER,AIR LOOP HVAC ZONE MIXER 1,NODE 608,NODE 119,AIR LOOP HVAC 1
     Return Air Path Component Nodes,96,AIRLOOPHVAC:ZONEMIXER,AIR LOOP HVAC ZONE MIXER 1,NODE 613,NODE 119,AIR LOOP HVAC 1
     Return Air Path Component Nodes,97,AIRLOOPHVAC:ZONEMIXER,AIR LOOP HVAC ZONE MIXER 1,NODE 618,NODE 119,AIR LOOP HVAC 1
     Return Air Path Component Nodes,98,AIRLOOPHVAC:ZONEMIXER,AIR LOOP HVAC ZONE MIXER 1,NODE 623,NODE 119,AIR LOOP HVAC 1
     Return Air Path Component Nodes,99,AIRLOOPHVAC:ZONEMIXER,AIR LOOP HVAC ZONE MIXER 1,NODE 628,NODE 119,AIR LOOP HVAC 1
     Return Air Path Component Nodes,100,AIRLOOPHVAC:ZONEMIXER,AIR LOOP HVAC ZONE MIXER 1,NODE 633,NODE 119,AIR LOOP HVAC 1
     Return Air Path Component Nodes,101,AIRLOOPHVAC:ZONEMIXER,AIR LOOP HVAC ZONE MIXER 1,NODE 638,NODE 119,AIR LOOP HVAC 1
     Return Air Path Component Nodes,102,AIRLOOPHVAC:ZONEMIXER,AIR LOOP HVAC ZONE MIXER 1,NODE 643,NODE 119,AIR LOOP HVAC 1
     Return Air Path Component Nodes,103,AIRLOOPHVAC:ZONEMIXER,AIR LOOP HVAC ZONE MIXER 1,NODE 648,NODE 119,AIR LOOP HVAC 1
     Return Air Path Component Nodes,104,AIRLOOPHVAC:ZONEMIXER,AIR LOOP HVAC ZONE MIXER 1,NODE 653,NODE 119,AIR LOOP HVAC 1
     Return Air Path Component Nodes,105,AIRLOOPHVAC:ZONEMIXER,AIR LOOP HVAC ZONE MIXER 1,NODE 658,NODE 119,AIR LOOP HVAC 1
     Return Air Path Component Nodes,106,AIRLOOPHVAC:ZONEMIXER,AIR LOOP HVAC ZONE MIXER 1,NODE 663,NODE 119,AIR LOOP HVAC 1
[...]
 Non-Parent Node Connection,NODE 599,AIRTERMINAL:SINGLEDUCT:VAV:REHEAT,AIR TERMINAL SINGLE DUCT VAV REHEAT 94,Inlet,1
 Non-Parent Node Connection,AIR TERMINAL SINGLE DUCT VAV REHEAT 95 DAMPER OUTLET,AIRTERMINAL:SINGLEDUCT:VAV:REHEAT,AIR TERMINAL SINGLE DUCT VAV REHEAT 95,Outlet,1
 Non-Parent Node Connection,NODE 604,AIRTERMINAL:SINGLEDUCT:VAV:REHEAT,AIR TERMINAL SINGLE DUCT VAV REHEAT 95,Inlet,1
 Non-Parent Node Connection,AIR TERMINAL SINGLE DUCT VAV REHEAT 96 DAMPER OUTLET,AIRTERMINAL:SINGLEDUCT:VAV:REHEAT,AIR TERMINAL SINGLE DUCT VAV REHEAT 96,Outlet,1
 Non-Parent Node Connection,NODE 609,AIRTERMINAL:SINGLEDUCT:VAV:REHEAT,AIR TERMINAL SINGLE DUCT VAV REHEAT 96,Inlet,1
 Non-Parent Node Connection,AIR TERMINAL SINGLE DUCT VAV REHEAT 97 DAMPER OUTLET,AIRTERMINAL:SINGLEDUCT:VAV:REHEAT,AIR TERMINAL SINGLE DUCT VAV REHEAT 97,Outlet,1
 Non-Parent Node Connection,NODE 614,AIRTERMINAL:SINGLEDUCT:VAV:REHEAT,AIR TERMINAL SINGLE DUCT VAV REHEAT 97,Inlet,1
 Non-Parent Node Connection,AIR TERMINAL SINGLE DUCT VAV REHEAT 98 DAMPER OUTLET,AIRTERMINAL:SINGLEDUCT:VAV:REHEAT,AIR TERMINAL SINGLE DUCT VAV REHEAT 98,Outlet,1
 Non-Parent Node Connection,NODE 619,AIRTERMINAL:SINGLEDUCT:VAV:REHEAT,AIR TERMINAL SINGLE DUCT VAV REHEAT 98,Inlet,1
 Non-Parent Node Connection,AIR TERMINAL SINGLE DUCT VAV REHEAT 99 DAMPER OUTLET,AIRTERMINAL:SINGLEDUCT:VAV:REHEAT,AIR TERMINAL SINGLE DUCT VAV REHEAT 99,Outlet,1
 Non-Parent Node Connection,NODE 624,AIRTERMINAL:SINGLEDUCT:VAV:REHEAT,AIR TERMINAL SINGLE DUCT VAV REHEAT 99,Inlet,1
 Non-Parent Node Connection,AIR TERMINAL SINGLE DUCT VAV REHEAT 100 DAMPER OUTLET,AIRTERMINAL:SINGLEDUCT:VAV:REHEAT,AIR TERMINAL SINGLE DUCT VAV REHEAT 100,Outlet,1
 Non-Parent Node Connection,NODE 629,AIRTERMINAL:SINGLEDUCT:VAV:REHEAT,AIR TERMINAL SINGLE DUCT VAV REHEAT 100,Inlet,1
 Non-Parent Node Connection,AIR TERMINAL SINGLE DUCT VAV REHEAT 101 DAMPER OUTLET,AIRTERMINAL:SINGLEDUCT:VAV:REHEAT,AIR TERMINAL SINGLE DUCT VAV REHEAT 101,Outlet,1
 Non-Parent Node Connection,NODE 634,AIRTERMINAL:SINGLEDUCT:VAV:REHEAT,AIR TERMINAL SINGLE DUCT VAV REHEAT 101,Inlet,1
 Non-Parent Node Connection,AIR TERMINAL SINGLE DUCT VAV REHEAT 102 DAMPER OUTLET,AIRTERMINAL:SINGLEDUCT:VAV:REHEAT,AIR TERMINAL SINGLE DUCT VAV REHEAT 102,Outlet,1
 Non-Parent Node Connection,NODE 639,AIRTERMINAL:SINGLEDUCT:VAV:REHEAT,AIR TERMINAL SINGLE DUCT VAV REHEAT 102,Inlet,1
 Non-Parent Node Connection,AIR TERMINAL SINGLE DUCT VAV REHEAT 103 DAMPER OUTLET,AIRTERMINAL:SINGLEDUCT:VAV:REHEAT,AIR TERMINAL SINGLE DUCT VAV REHEAT 103,Outlet,1
 Non-Parent Node Connection,NODE 644,AIRTERMINAL:SINGLEDUCT:VAV:REHEAT,AIR TERMINAL SINGLE DUCT VAV REHEAT 103,Inlet,1
 Non-Parent Node Connection,AIR TERMINAL SINGLE DUCT VAV REHEAT 104 DAMPER OUTLET,AIRTERMINAL:SINGLEDUCT:VAV:REHEAT,AIR TERMINAL SINGLE DUCT VAV REHEAT 104,Outlet,1
 Non-Parent Node Connection,NODE 649,AIRTERMINAL:SINGLEDUCT:VAV:REHEAT,AIR TERMINAL SINGLE DUCT VAV REHEAT 104,Inlet,1
 Non-Parent Node Connection,AIR TERMINAL SINGLE DUCT VAV REHEAT 105 DAMPER OUTLET,AIRTERMINAL:SINGLEDUCT:VAV:REHEAT,AIR TERMINAL SINGLE DUCT VAV REHEAT 105,Outlet,1
 Non-Parent Node Connection,NODE 654,AIRTERMINAL:SINGLEDUCT:VAV:REHEAT,AIR TERMINAL SINGLE DUCT VAV REHEAT 105,Inlet,1
 Non-Parent Node Connection,AIR TERMINAL SINGLE DUCT VAV REHEAT 106 DAMPER OUTLET,AIRTERMINAL:SINGLEDUCT:VAV:REHEAT,AIR TERMINAL SINGLE DUCT VAV REHEAT 106,Outlet,1
 Non-Parent Node Connection,NODE 659,AIRTERMINAL:SINGLEDUCT:VAV:REHEAT,AIR TERMINAL SINGLE DUCT VAV REHEAT 106,Inlet,1
 Non-Parent Node Connection,AIR TERMINAL SINGLE DUCT VAV REHEAT 107 DAMPER OUTLET,AIRTERMINAL:SINGLEDUCT:VAV:REHEAT,AIR TERMINAL SINGLE DUCT VAV REHEAT 107,Outlet,1
 Non-Parent Node Connection,NODE 664,AIRTERMINAL:SINGLEDUCT:VAV:REHEAT,AIR TERMINAL SINGLE DUCT VAV REHEAT 107,Inlet,1
 Non-Parent Node Connection,AIR TERMINAL SINGLE DUCT VAV REHEAT 108 DAMPER OUTLET,AIRTERMINAL:SINGLEDUCT:VAV:REHEAT,AIR TERMINAL SINGLE DUCT VAV REHEAT 108,Outlet,1
 Non-Parent Node Connection,NODE 669,AIRTERMINAL:SINGLEDUCT:VAV:REHEAT,AIR TERMINAL SINGLE DUCT VAV REHEAT 108,Inlet,1
 Non-Parent Node Connection,AIR TERMINAL SINGLE DUCT VAV REHEAT 109 DAMPER OUTLET,AIRTERMINAL:SINGLEDUCT:VAV:REHEAT,AIR TERMINAL SINGLE DUCT VAV REHEAT 109,Outlet,1
 Non-Parent Node Connection,NODE 674,AIRTERMINAL:SINGLEDUCT:VAV:REHEAT,AIR TERMINAL SINGLE DUCT VAV REHEAT 109,Inlet,1
 Non-Parent Node Connection,AIR TERMINAL SINGLE DUCT VAV REHEAT 110 DAMPER OUTLET,AIRTERMINAL:SINGLEDUCT:VAV:REHEAT,AIR TERMINAL SINGLE DUCT VAV REHEAT 110,Outlet,1
 Non-Parent Node Connection,NODE 679,AIRTERMINAL:SINGLEDUCT:VAV:REHEAT,AIR TERMINAL SINGLE DUCT VAV REHEAT 110,Inlet,1
 Non-Parent Node Connection,AIR TERMINAL SINGLE DUCT VAV REHEAT 111 DAMPER OUTLET,AIRTERMINAL:SINGLEDUCT:VAV:REHEAT,AIR TERMINAL SINGLE DUCT VAV REHEAT 111,Outlet,1
 Non-Parent Node Connection,NODE 684,AIRTERMINAL:SINGLEDUCT:VAV:REHEAT,AIR TERMINAL SINGLE DUCT VAV REHEAT 111,Inlet,1
 Non-Parent Node Connection,AIR TERMINAL SINGLE DUCT VAV REHEAT 112 DAMPER OUTLET,AIRTERMINAL:SINGLEDUCT:VAV:REHEAT,AIR TERMINAL SINGLE DUCT VAV REHEAT 112,Outlet,1
 Non-Parent Node Connection,NODE 689,AIRTERMINAL:SINGLEDUCT:VAV:REHEAT,AIR TERMINAL SINGLE DUCT VAV REHEAT 112,Inlet,1
 Non-Parent Node Connection,AIR TERMINAL SINGLE DUCT VAV REHEAT 113 DAMPER OUTLET,AIRTERMINAL:SINGLEDUCT:VAV:REHEAT,AIR TERMINAL SINGLE DUCT VAV REHEAT 113,Outlet,1
 Non-Parent Node Connection,NODE 694,AIRTERMINAL:SINGLEDUCT:VAV:REHEAT,AIR TERMINAL SINGLE DUCT VAV REHEAT 113,Inlet,1
 Non-Parent Node Connection,AIR TERMINAL SINGLE DUCT VAV REHEAT 114 DAMPER OUTLET,AIRTERMINAL:SINGLEDUCT:VAV:REHEAT,AIR TERMINAL SINGLE DUCT VAV REHEAT 114,Outlet,1
 Non-Parent Node Connection,NODE 699,AIRTERMINAL:SINGLEDUCT:VAV:REHEAT,AIR TERMINAL SINGLE DUCT VAV REHEAT 114,Inlet,1
 Non-Parent Node Connection,AIR TERMINAL SINGLE DUCT VAV REHEAT 115 DAMPER OUTLET,AIRTERMINAL:SINGLEDUCT:VAV:REHEAT,AIR TERMINAL SINGLE DUCT VAV REHEAT 115,Outlet,1
 Non-Parent Node Connection,NODE 704,AIRTERMINAL:SINGLEDUCT:VAV:REHEAT,AIR TERMINAL SINGLE DUCT VAV REHEAT 115,Inlet,1
 Non-Parent Node Connection,AIR TERMINAL SINGLE DUCT VAV REHEAT 116 DAMPER OUTLET,AIRTERMINAL:SINGLEDUCT:VAV:REHEAT,AIR TERMINAL SINGLE DUCT VAV REHEAT 116,Outlet,1
 Non-Parent Node Connection,NODE 709,AIRTERMINAL:SINGLEDUCT:VAV:REHEAT,AIR TERMINAL SINGLE DUCT VAV REHEAT 116,Inlet,1
 Non-Parent Node Connection,NODE 119,AIRLOOPHVAC:ZONEMIXER,AIR LOOP HVAC ZONE MIXER 1,Outlet,1
 Non-Parent Node Connection,NODE 138,AIRLOOPHVAC:ZONEMIXER,AIR LOOP HVAC ZONE MIXER 1,Inlet,1
 Non-Parent Node Connection,NODE 143,AIRLOOPHVAC:ZONEMIXER,AIR LOOP HVAC ZONE MIXER 1,Inlet,1
 Non-Parent Node Connection,NODE 148,AIRLOOPHVAC:ZONEMIXER,AIR LOOP HVAC ZONE MIXER 1,Inlet,1
 Non-Parent Node Connection,NODE 153,AIRLOOPHVAC:ZONEMIXER,AIR LOOP HVAC ZONE MIXER 1,Inlet,1
 Non-Parent Node Connection,NODE 158,AIRLOOPHVAC:ZONEMIXER,AIR LOOP HVAC ZONE MIXER 1,Inlet,1
 Non-Parent Node Connection,NODE 163,AIRLOOPHVAC:ZONEMIXER,AIR LOOP HVAC ZONE MIXER 1,Inlet,1
 Non-Parent Node Connection,NODE 168,AIRLOOPHVAC:ZONEMIXER,AIR LOOP HVAC ZONE MIXER 1,Inlet,1
 Non-Parent Node Connection,NODE 173,AIRLOOPHVAC:ZONEMIXER,AIR LOOP HVAC ZONE MIXER 1,Inlet,1
 Non-Parent Node Connection,NODE 178,AIRLOOPHVAC:ZONEMIXER,AIR LOOP HVAC ZONE MIXER 1,Inlet,1
 Non-Parent Node Connection,NODE 183,AIRLOOPHVAC:ZONEMIXER,AIR LOOP HVAC ZONE MIXER 1,Inlet,1
 Non-Parent Node Connection,NODE 188,AIRLOOPHVAC:ZONEMIXER,AIR LOOP HVAC ZONE MIXER 1,Inlet,1
 Non-Parent Node Connection,NODE 193,AIRLOOPHVAC:ZONEMIXER,AIR LOOP HVAC ZONE MIXER 1,Inlet,1
 Non-Parent Node Connection,NODE 198,AIRLOOPHVAC:ZONEMIXER,AIR LOOP HVAC ZONE MIXER 1,Inlet,1
 Non-Parent Node Connection,NODE 203,AIRLOOPHVAC:ZONEMIXER,AIR LOOP HVAC ZONE MIXER 1,Inlet,1
 Non-Parent Node Connection,NODE 208,AIRLOOPHVAC:ZONEMIXER,AIR LOOP HVAC ZONE MIXER 1,Inlet,1
 Non-Parent Node Connection,NODE 213,AIRLOOPHVAC:ZONEMIXER,AIR LOOP HVAC ZONE MIXER 1,Inlet,1
 Non-Parent Node Connection,NODE 218,AIRLOOPHVAC:ZONEMIXER,AIR LOOP HVAC ZONE MIXER 1,Inlet,1
 Non-Parent Node Connection,NODE 223,AIRLOOPHVAC:ZONEMIXER,AIR LOOP HVAC ZONE MIXER 1,Inlet,1
 Non-Parent Node Connection,NODE 228,AIRLOOPHVAC:ZONEMIXER,AIR LOOP HVAC ZONE MIXER 1,Inlet,1
 Non-Parent Node Connection,NODE 233,AIRLOOPHVAC:ZONEMIXER,AIR LOOP HVAC ZONE MIXER 1,Inlet,1
 Non-Parent Node Connection,NODE 238,AIRLOOPHVAC:ZONEMIXER,AIR LOOP HVAC ZONE MIXER 1,Inlet,1
 Non-Parent Node Connection,NODE 243,AIRLOOPHVAC:ZONEMIXER,AIR LOOP HVAC ZONE MIXER 1,Inlet,1
 Non-Parent Node Connection,NODE 248,AIRLOOPHVAC:ZONEMIXER,AIR LOOP HVAC ZONE MIXER 1,Inlet,1
 Non-Parent Node Connection,NODE 253,AIRLOOPHVAC:ZONEMIXER,AIR LOOP HVAC ZONE MIXER 1,Inlet,1
 Non-Parent Node Connection,NODE 258,AIRLOOPHVAC:ZONEMIXER,AIR LOOP HVAC ZONE MIXER 1,Inlet,1
 Non-Parent Node Connection,NODE 263,AIRLOOPHVAC:ZONEMIXER,AIR LOOP HVAC ZONE MIXER 1,Inlet,1
 Non-Parent Node Connection,NODE 268,AIRLOOPHVAC:ZONEMIXER,AIR LOOP HVAC ZONE MIXER 1,Inlet,1
 Non-Parent Node Connection,NODE 273,AIRLOOPHVAC:ZONEMIXER,AIR LOOP HVAC ZONE MIXER 1,Inlet,1
 Non-Parent Node Connection,NODE 278,AIRLOOPHVAC:ZONEMIXER,AIR LOOP HVAC ZONE MIXER 1,Inlet,1
 Non-Parent Node Connection,NODE 283,AIRLOOPHVAC:ZONEMIXER,AIR LOOP HVAC ZONE MIXER 1,Inlet,1
 Non-Parent Node Connection,NODE 288,AIRLOOPHVAC:ZONEMIXER,AIR LOOP HVAC ZONE MIXER 1,Inlet,1
 Non-Parent Node Connection,NODE 293,AIRLOOPHVAC:ZONEMIXER,AIR LOOP HVAC ZONE MIXER 1,Inlet,1
 Non-Parent Node Connection,NODE 298,AIRLOOPHVAC:ZONEMIXER,AIR LOOP HVAC ZONE MIXER 1,Inlet,1
 Non-Parent Node Connection,NODE 303,AIRLOOPHVAC:ZONEMIXER,AIR LOOP HVAC ZONE MIXER 1,Inlet,1
 Non-Parent Node Connection,NODE 308,AIRLOOPHVAC:ZONEMIXER,AIR LOOP HVAC ZONE MIXER 1,Inlet,1
 Non-Parent Node Connection,NODE 313,AIRLOOPHVAC:ZONEMIXER,AIR LOOP HVAC ZONE MIXER 1,Inlet,1
 Non-Parent Node Connection,NODE 318,AIRLOOPHVAC:ZONEMIXER,AIR LOOP HVAC ZONE MIXER 1,Inlet,1
 Non-Parent Node Connection,NODE 323,AIRLOOPHVAC:ZONEMIXER,AIR LOOP HVAC ZONE MIXER 1,Inlet,1
 Non-Parent Node Connection,NODE 328,AIRLOOPHVAC:ZONEMIXER,AIR LOOP HVAC ZONE MIXER 1,Inlet,1
 Non-Parent Node Connection,NODE 333,AIRLOOPHVAC:ZONEMIXER,AIR LOOP HVAC ZONE MIXER 1,Inlet,1
 Non-Parent Node Connection,NODE 338,AIRLOOPHVAC:ZONEMIXER,AIR LOOP HVAC ZONE MIXER 1,Inlet,1
 Non-Parent Node Connection,NODE 343,AIRLOOPHVAC:ZONEMIXER,AIR LOOP HVAC ZONE MIXER 1,Inlet,1
 Non-Parent Node Connection,NODE 348,AIRLOOPHVAC:ZONEMIXER,AIR LOOP HVAC ZONE MIXER 1,Inlet,1
 Non-Parent Node Connection,NODE 353,AIRLOOPHVAC:ZONEMIXER,AIR LOOP HVAC ZONE MIXER 1,Inlet,1
 Non-Parent Node Connection,NODE 358,AIRLOOPHVAC:ZONEMIXER,AIR LOOP HVAC ZONE MIXER 1,Inlet,1
 Non-Parent Node Connection,NODE 363,AIRLOOPHVAC:ZONEMIXER,AIR LOOP HVAC ZONE MIXER 1,Inlet,1
 Non-Parent Node Connection,NODE 368,AIRLOOPHVAC:ZONEMIXER,AIR LOOP HVAC ZONE MIXER 1,Inlet,1
 Non-Parent Node Connection,NODE 373,AIRLOOPHVAC:ZONEMIXER,AIR LOOP HVAC ZONE MIXER 1,Inlet,1
 Non-Parent Node Connection,NODE 378,AIRLOOPHVAC:ZONEMIXER,AIR LOOP HVAC ZONE MIXER 1,Inlet,1
 Non-Parent Node Connection,NODE 383,AIRLOOPHVAC:ZONEMIXER,AIR LOOP HVAC ZONE MIXER 1,Inlet,1
 Non-Parent Node Connection,NODE 388,AIRLOOPHVAC:ZONEMIXER,AIR LOOP HVAC ZONE MIXER 1,Inlet,1
 Non-Parent Node Connection,NODE 393,AIRLOOPHVAC:ZONEMIXER,AIR LOOP HVAC ZONE MIXER 1,Inlet,1
 Non-Parent Node Connection,NODE 398,AIRLOOPHVAC:ZONEMIXER,AIR LOOP HVAC ZONE MIXER 1,Inlet,1
 Non-Parent Node Connection,NODE 403,AIRLOOPHVAC:ZONEMIXER,AIR LOOP HVAC ZONE MIXER 1,Inlet,1
 Non-Parent Node Connection,NODE 408,AIRLOOPHVAC:ZONEMIXER,AIR LOOP HVAC ZONE MIXER 1,Inlet,1
 Non-Parent Node Connection,NODE 413,AIRLOOPHVAC:ZONEMIXER,AIR LOOP HVAC ZONE MIXER 1,Inlet,1
 Non-Parent Node Connection,NODE 418,AIRLOOPHVAC:ZONEMIXER,AIR LOOP HVAC ZONE MIXER 1,Inlet,1
 Non-Parent Node Connection,NODE 423,AIRLOOPHVAC:ZONEMIXER,AIR LOOP HVAC ZONE MIXER 1,Inlet,1
 Non-Parent Node Connection,NODE 428,AIRLOOPHVAC:ZONEMIXER,AIR LOOP HVAC ZONE MIXER 1,Inlet,1
 Non-Parent Node Connection,NODE 433,AIRLOOPHVAC:ZONEMIXER,AIR LOOP HVAC ZONE MIXER 1,Inlet,1
 Non-Parent Node Connection,NODE 438,AIRLOOPHVAC:ZONEMIXER,AIR LOOP HVAC ZONE MIXER 1,Inlet,1
 Non-Parent Node Connection,NODE 443,AIRLOOPHVAC:ZONEMIXER,AIR LOOP HVAC ZONE MIXER 1,Inlet,1
 Non-Parent Node Connection,NODE 448,AIRLOOPHVAC:ZONEMIXER,AIR LOOP HVAC ZONE MIXER 1,Inlet,1
 Non-Parent Node Connection,NODE 453,AIRLOOPHVAC:ZONEMIXER,AIR LOOP HVAC ZONE MIXER 1,Inlet,1
 Non-Parent Node Connection,NODE 458,AIRLOOPHVAC:ZONEMIXER,AIR LOOP HVAC ZONE MIXER 1,Inlet,1
 Non-Parent Node Connection,NODE 463,AIRLOOPHVAC:ZONEMIXER,AIR LOOP HVAC ZONE MIXER 1,Inlet,1
 Non-Parent Node Connection,NODE 468,AIRLOOPHVAC:ZONEMIXER,AIR LOOP HVAC ZONE MIXER 1,Inlet,1
 Non-Parent Node Connection,NODE 473,AIRLOOPHVAC:ZONEMIXER,AIR LOOP HVAC ZONE MIXER 1,Inlet,1
 Non-Parent Node Connection,NODE 478,AIRLOOPHVAC:ZONEMIXER,AIR LOOP HVAC ZONE MIXER 1,Inlet,1
 Non-Parent Node Connection,NODE 483,AIRLOOPHVAC:ZONEMIXER,AIR LOOP HVAC ZONE MIXER 1,Inlet,1
 Non-Parent Node Connection,NODE 488,AIRLOOPHVAC:ZONEMIXER,AIR LOOP HVAC ZONE MIXER 1,Inlet,1
 Non-Parent Node Connection,NODE 493,AIRLOOPHVAC:ZONEMIXER,AIR LOOP HVAC ZONE MIXER 1,Inlet,1
 Non-Parent Node Connection,NODE 498,AIRLOOPHVAC:ZONEMIXER,AIR LOOP HVAC ZONE MIXER 1,Inlet,1
 Non-Parent Node Connection,NODE 503,AIRLOOPHVAC:ZONEMIXER,AIR LOOP HVAC ZONE MIXER 1,Inlet,1
 Non-Parent Node Connection,NODE 508,AIRLOOPHVAC:ZONEMIXER,AIR LOOP HVAC ZONE MIXER 1,Inlet,1
 Non-Parent Node Connection,NODE 513,AIRLOOPHVAC:ZONEMIXER,AIR LOOP HVAC ZONE MIXER 1,Inlet,1
 Non-Parent Node Connection,NODE 518,AIRLOOPHVAC:ZONEMIXER,AIR LOOP HVAC ZONE MIXER 1,Inlet,1
 Non-Parent Node Connection,NODE 523,AIRLOOPHVAC:ZONEMIXER,AIR LOOP HVAC ZONE MIXER 1,Inlet,1
 Non-Parent Node Connection,NODE 528,AIRLOOPHVAC:ZONEMIXER,AIR LOOP HVAC ZONE MIXER 1,Inlet,1
 Non-Parent Node Connection,NODE 533,AIRLOOPHVAC:ZONEMIXER,AIR LOOP HVAC ZONE MIXER 1,Inlet,1
 Non-Parent Node Connection,NODE 538,AIRLOOPHVAC:ZONEMIXER,AIR LOOP HVAC ZONE MIXER 1,Inlet,1
 Non-Parent Node Connection,NODE 543,AIRLOOPHVAC:ZONEMIXER,AIR LOOP HVAC ZONE MIXER 1,Inlet,1
 Non-Parent Node Connection,NODE 548,AIRLOOPHVAC:ZONEMIXER,AIR LOOP HVAC ZONE MIXER 1,Inlet,1
 Non-Parent Node Connection,NODE 553,AIRLOOPHVAC:ZONEMIXER,AIR LOOP HVAC ZONE MIXER 1,Inlet,1
 Non-Parent Node Connection,NODE 558,AIRLOOPHVAC:ZONEMIXER,AIR LOOP HVAC ZONE MIXER 1,Inlet,1
 Non-Parent Node Connection,NODE 563,AIRLOOPHVAC:ZONEMIXER,AIR LOOP HVAC ZONE MIXER 1,Inlet,1
 Non-Parent Node Connection,NODE 568,AIRLOOPHVAC:ZONEMIXER,AIR LOOP HVAC ZONE MIXER 1,Inlet,1
 Non-Parent Node Connection,NODE 573,AIRLOOPHVAC:ZONEMIXER,AIR LOOP HVAC ZONE MIXER 1,Inlet,1
 Non-Parent Node Connection,NODE 578,AIRLOOPHVAC:ZONEMIXER,AIR LOOP HVAC ZONE MIXER 1,Inlet,1
 Non-Parent Node Connection,NODE 583,AIRLOOPHVAC:ZONEMIXER,AIR LOOP HVAC ZONE MIXER 1,Inlet,1
 Non-Parent Node Connection,NODE 588,AIRLOOPHVAC:ZONEMIXER,AIR LOOP HVAC ZONE MIXER 1,Inlet,1
 Non-Parent Node Connection,NODE 593,AIRLOOPHVAC:ZONEMIXER,AIR LOOP HVAC ZONE MIXER 1,Inlet,1
 Non-Parent Node Connection,NODE 598,AIRLOOPHVAC:ZONEMIXER,AIR LOOP HVAC ZONE MIXER 1,Inlet,1
 Non-Parent Node Connection,NODE 603,AIRLOOPHVAC:ZONEMIXER,AIR LOOP HVAC ZONE MIXER 1,Inlet,1
 Non-Parent Node Connection,NODE 608,AIRLOOPHVAC:ZONEMIXER,AIR LOOP HVAC ZONE MIXER 1,Inlet,1
 Non-Parent Node Connection,NODE 613,AIRLOOPHVAC:ZONEMIXER,AIR LOOP HVAC ZONE MIXER 1,Inlet,1
 Non-Parent Node Connection,NODE 618,AIRLOOPHVAC:ZONEMIXER,AIR LOOP HVAC ZONE MIXER 1,Inlet,1
 Non-Parent Node Connection,NODE 623,AIRLOOPHVAC:ZONEMIXER,AIR LOOP HVAC ZONE MIXER 1,Inlet,1
 Non-Parent Node Connection,NODE 628,AIRLOOPHVAC:ZONEMIXER,AIR LOOP HVAC ZONE MIXER 1,Inlet,1
 Non-Parent Node Connection,NODE 633,AIRLOOPHVAC:ZONEMIXER,AIR LOOP HVAC ZONE MIXER 1,Inlet,1
 Non-Parent Node Connection,NODE 638,AIRLOOPHVAC:ZONEMIXER,AIR LOOP HVAC ZONE MIXER 1,Inlet,1
 Non-Parent Node Connection,NODE 643,AIRLOOPHVAC:ZONEMIXER,AIR LOOP HVAC ZONE MIXER 1,Inlet,1
 Non-Parent Node Connection,NODE 648,AIRLOOPHVAC:ZONEMIXER,AIR LOOP HVAC ZONE MIXER 1,Inlet,1
 Non-Parent Node Connection,NODE 653,AIRLOOPHVAC:ZONEMIXER,AIR LOOP HVAC ZONE MIXER 1,Inlet,1
 Non-Parent Node Connection,NODE 658,AIRLOOPHVAC:ZONEMIXER,AIR LOOP HVAC ZONE MIXER 1,Inlet,1
 Non-Parent Node Connection,NODE 663,AIRLOOPHVAC:ZONEMIXER,AIR LOOP HVAC ZONE MIXER 1,Inlet,1
 Non-Parent Node Connection,NODE 668,AIRLOOPHVAC:ZONEMIXER,AIR LOOP HVAC ZONE MIXER 1,Inlet,1
 Non-Parent Node Connection,NODE 673,AIRLOOPHVAC:ZONEMIXER,AIR LOOP HVAC ZONE MIXER 1,Inlet,1
 Non-Parent Node Connection,NODE 678,AIRLOOPHVAC:ZONEMIXER,AIR LOOP HVAC ZONE MIXER 1,Inlet,1
 Non-Parent Node Connection,NODE 683,AIRLOOPHVAC:ZONEMIXER,AIR LOOP HVAC ZONE MIXER 1,Inlet,1
 Non-Parent Node Connection,NODE 688,AIRLOOPHVAC:ZONEMIXER,AIR LOOP HVAC ZONE MIXER 1,Inlet,1
 Non-Parent Node Connection,NODE 693,AIRLOOPHVAC:ZONEMIXER,AIR LOOP HVAC ZONE MIXER 1,Inlet,1
 Non-Parent Node Connection,NODE 698,AIRLOOPHVAC:ZONEMIXER,AIR LOOP HVAC ZONE MIXER 1,Inlet,1
 Non-Parent Node Connection,NODE 703,AIRLOOPHVAC:ZONEMIXER,AIR LOOP HVAC ZONE MIXER 1,Inlet,1
 Non-Parent Node Connection,NODE 708,AIRLOOPHVAC:ZONEMIXER,AIR LOOP HVAC ZONE MIXER 1,Inlet,1
 Non-Parent Node Connection,NODE 123,OUTDOORAIR:MIXER,OUTDOORAIR:MIXER {A65EBB15-D6AD-485C-80E3-4A8B6E2FD795},Outlet,1
 Non-Parent Node Connection,NODE 121,OUTDOORAIR:MIXER,OUTDOORAIR:MIXER {A65EBB15-D6AD-485C-80E3-4A8B6E2FD795},Inlet,1
 Non-Parent Node Connection,NODE 122,OUTDOORAIR:MIXER,OUTDOORAIR:MIXER {A65EBB15-D6AD-485C-80E3-4A8B6E2FD795},ReliefAir,1
 Non-Parent Node Connection,NODE 116,OUTDOORAIR:MIXER,OUTDOORAIR:MIXER {A65EBB15-D6AD-485C-80E3-4A8B6E2FD795},Inlet,1
 Non-Parent Node Connection,NODE 125,CONTROLLER:WATERCOIL,CONTROLLER WATER COIL 1,Sensor,1
 Non-Parent Node Connection,NODE 131,CONTROLLER:WATERCOIL,CONTROLLER WATER COIL 1,Actuator,1
 Non-Parent Node Connection,NODE 123,CONTROLLER:OUTDOORAIR,CONTROLLER OUTDOOR AIR 1,Sensor,1
 Non-Parent Node Connection,NODE 121,CONTROLLER:OUTDOORAIR,CONTROLLER OUTDOOR AIR 1,Actuator,1
 Non-Parent Node Connection,NODE 122,CONTROLLER:OUTDOORAIR,CONTROLLER OUTDOOR AIR 1,Actuator,1
 Non-Parent Node Connection,NODE 116,CONTROLLER:OUTDOORAIR,CONTROLLER OUTDOOR AIR 1,Sensor,1
 Non-Parent Node Connection,NODE 123,COIL:COOLING:DX:TWOSPEED,COIL COOLING DX TWO SPEED 1,Inlet,1
 Non-Parent Node Connection,NODE 124,COIL:COOLING:DX:TWOSPEED,COIL COOLING DX TWO SPEED 1,Outlet,1
 Non-Parent Node Connection,NODE 125,FAN:VARIABLEVOLUME,FAN VARIABLE VOLUME 1,Inlet,1
 Non-Parent Node Connection,NODE 117,FAN:VARIABLEVOLUME,FAN VARIABLE VOLUME 1,Outlet,1
 Non-Parent Node Connection,NODE 134,PIPE:ADIABATIC,PIPE ADIABATIC 1,Inlet,1
 Non-Parent Node Connection,NODE 135,PIPE:ADIABATIC,PIPE ADIABATIC 1,Outlet,1
 Non-Parent Node Connection,NODE 136,PIPE:ADIABATIC,PIPE ADIABATIC 2,Inlet,1
 Non-Parent Node Connection,NODE 127,PIPE:ADIABATIC,PIPE ADIABATIC 2,Outlet,1
 Non-Parent Node Connection,NODE 129,PIPE:ADIABATIC,PLANT LOOP 1 DEMAND INLET PIPE,Inlet,1
 Non-Parent Node Connection,PLANT LOOP 1 DEMAND INLET PIPE NODE,PIPE:ADIABATIC,PLANT LOOP 1 DEMAND INLET PIPE,Outlet,1
 Non-Parent Node Connection,PLANT LOOP 1 DEMAND BYPASS PIPE INLET NODE,PIPE:ADIABATIC,PLANT LOOP 1 DEMAND BYPASS PIPE,Inlet,1
 Non-Parent Node Connection,PLANT LOOP 1 DEMAND BYPASS PIPE OUTLET NODE,PIPE:ADIABATIC,PLANT LOOP 1 DEMAND BYPASS PIPE,Outlet,1
 Non-Parent Node Connection,PLANT LOOP 1 DEMAND OUTLET PIPE NODE,PIPE:ADIABATIC,PLANT LOOP 1 DEMAND OUTLET PIPE,Inlet,1
 Non-Parent Node Connection,NODE 130,PIPE:ADIABATIC,PLANT LOOP 1 DEMAND OUTLET PIPE,Outlet,1
 Non-Parent Node Connection,NODE 128,BOILER:HOTWATER,BOILER HOT WATER 1,Inlet,1
 Non-Parent Node Connection,NODE 133,BOILER:HOTWATER,BOILER HOT WATER 1,Outlet,1
 Non-Parent Node Connection,NODE 126,PUMP:VARIABLESPEED,PUMP VARIABLE SPEED 1,Inlet,1
 Non-Parent Node Connection,NODE 132,PUMP:VARIABLESPEED,PUMP VARIABLE SPEED 1,Outlet,1
