Program Version,EnergyPlus, Linux, VERSION 7.1.0.012, YMD=2012.12.21 16:12,IDD_Version 7.1.0.012
   ** Warning ** CheckThreading: ProgramControl is not available in this version.
   ** Severe  ** ManageSizing: Requested System Sizing but did not request Zone Sizing.
   **   ~~~   ** System Sizing cannot be done without Zone Sizing
   **  Fatal  ** Program terminates for preceding conditions.
   ...Summary of Errors that led to program termination:
   ..... Reference severe error count=1
   ..... Last severe error=ManageSizing: Requested System Sizing but did not request Zone Sizing.
   ************* Warning:  Node connection errors not checked - most system input has not been read (see previous warning).
   ************* Fatal error -- final processing.  Program exited before simulations began.  See previous error messages.
   ************* EnergyPlus Warmup Error Summary. During Warmup: 0 Warning; 0 Severe Errors.
   ************* EnergyPlus Sizing Error Summary. During Sizing: 0 Warning; 1 Severe Errors.
   ************* EnergyPlus Terminated--Fatal Error Detected. 1 Warning; 1 Severe Errors; Elapsed Time=00hr 00min  0.67sec
