Program Version,EnergyPlus-Linux-OMP-32 7.2.0.006, YMD=2013.01.17 14:51
! This file shows details about the branches, nodes, and other
! elements of the flow connections.
! This file is intended for use in "debugging" potential problems
! that may also be detected by the program, but may be more easily
! identified by "eye".
! This file is also intended to support software which draws a
! schematic diagram of the HVAC system.
! ===============================================================
! #Nodes,<Number of Unique Nodes>
 #Nodes,165                 
! <Node>,<NodeNumber>,<Node Name>,<Node Fluid Type>,<# Times Node Referenced After Definition>
 Node,1,NODE 137,Air,4
 Node,2,NODE 87,Air,4
 Node,3,NODE 72,Air,4
 Node,4,NODE 102,Air,4
 Node,5,NODE 132,Air,4
 Node,6,NODE 62,Air,4
 Node,7,NODE 67,Air,4
 Node,8,NODE 57,Air,4
 Node,9,NODE 117,Air,4
 Node,10,NODE 92,Air,4
 Node,11,NODE 97,Air,4
 Node,12,NODE 25,Air,4
 Node,13,NODE 47,Air,4
 Node,14,NODE 52,Air,4
 Node,15,NODE 82,Air,4
 Node,16,NODE 112,Air,4
 Node,17,NODE 107,Air,4
 Node,18,NODE 122,Air,4
 Node,19,NODE 127,Air,4
 Node,20,NODE 77,Air,4
 Node,21,NODE 21,Air,3
 Node,22,NODE 28,Air,6
 Node,23,NODE 29,Air,6
 Node,24,NODE 30,Air,8
 Node,25,NODE 22,Air,9
 Node,26,NODE 31,Water,2
 Node,27,NODE 37,Water,1
 Node,28,NODE 33,Water,1
 Node,29,NODE 38,Water,1
 Node,30,NODE 39,Water,1
 Node,31,NODE 40,Water,1
 Node,32,NODE 41,Water,1
 Node,33,NODE 32,Water,4
 Node,34,NODE 34,Water,2
 Node,35,PLANT LOOP 1 DEMAND INLET PIPE NODE,Water,1
 Node,36,NODE 36,Water,2
 Node,37,NODE 42,Water,1
 Node,38,NODE 45,Water,1
 Node,39,NODE 46,Water,1
 Node,40,NODE 50,Water,1
 Node,41,NODE 51,Water,1
 Node,42,NODE 55,Water,1
 Node,43,NODE 56,Water,1
 Node,44,NODE 60,Water,1
 Node,45,NODE 61,Water,1
 Node,46,NODE 65,Water,1
 Node,47,NODE 66,Water,1
 Node,48,NODE 70,Water,1
 Node,49,NODE 71,Water,1
 Node,50,NODE 75,Water,1
 Node,51,NODE 76,Water,1
 Node,52,NODE 80,Water,1
 Node,53,NODE 81,Water,1
 Node,54,NODE 85,Water,1
 Node,55,NODE 86,Water,1
 Node,56,NODE 90,Water,1
 Node,57,NODE 91,Water,1
 Node,58,NODE 95,Water,1
 Node,59,NODE 96,Water,1
 Node,60,NODE 100,Water,1
 Node,61,NODE 101,Water,1
 Node,62,NODE 105,Water,1
 Node,63,NODE 106,Water,1
 Node,64,NODE 110,Water,1
 Node,65,NODE 111,Water,1
 Node,66,NODE 115,Water,1
 Node,67,NODE 116,Water,1
 Node,68,NODE 120,Water,1
 Node,69,NODE 121,Water,1
 Node,70,NODE 125,Water,1
 Node,71,NODE 126,Water,1
 Node,72,NODE 130,Water,1
 Node,73,NODE 131,Water,1
 Node,74,NODE 135,Water,1
 Node,75,NODE 136,Water,1
 Node,76,NODE 140,Water,1
 Node,77,NODE 141,Water,1
 Node,78,PLANT LOOP 1 DEMAND BYPASS PIPE INLET NODE,Water,1
 Node,79,PLANT LOOP 1 DEMAND BYPASS PIPE OUTLET NODE,Water,1
 Node,80,PLANT LOOP 1 DEMAND OUTLET PIPE NODE,Water,1
 Node,81,NODE 35,Water,2
 Node,82,NODE 26,Air,2
 Node,83,NODE 16,Air,0
 Node,84,NODE 138,Air,1
 Node,85,NODE 12,Air,0
 Node,86,NODE 88,Air,1
 Node,87,NODE 7,Air,0
 Node,88,NODE 73,Air,1
 Node,89,NODE 9,Air,0
 Node,90,NODE 103,Air,1
 Node,91,NODE 8,Air,0
 Node,92,NODE 133,Air,1
 Node,93,NODE 10,Air,0
 Node,94,NODE 63,Air,1
 Node,95,NODE 3,Air,0
 Node,96,NODE 68,Air,1
 Node,97,NODE 4,Air,0
 Node,98,NODE 58,Air,1
 Node,99,NODE 15,Air,0
 Node,100,NODE 118,Air,1
 Node,101,NODE 6,Air,0
 Node,102,NODE 93,Air,1
 Node,103,NODE 2,Air,0
 Node,104,NODE 98,Air,1
 Node,105,NODE 13,Air,0
 Node,106,NODE 43,Air,1
 Node,107,NODE 1,Air,0
 Node,108,NODE 48,Air,1
 Node,109,NODE 17,Air,0
 Node,110,NODE 53,Air,1
 Node,111,NODE 5,Air,0
 Node,112,NODE 83,Air,1
 Node,113,NODE 18,Air,0
 Node,114,NODE 113,Air,1
 Node,115,NODE 19,Air,0
 Node,116,NODE 108,Air,1
 Node,117,NODE 11,Air,0
 Node,118,NODE 123,Air,1
 Node,119,NODE 20,Air,0
 Node,120,NODE 128,Air,1
 Node,121,NODE 14,Air,0
 Node,122,NODE 78,Air,1
 Node,123,NODE 23,Air,2
 Node,124,NODE 24,Air,2
 Node,125,NODE 44,Air,1
 Node,126,NODE 49,Air,1
 Node,127,NODE 54,Air,1
 Node,128,NODE 59,Air,1
 Node,129,NODE 64,Air,1
 Node,130,NODE 69,Air,1
 Node,131,NODE 74,Air,1
 Node,132,NODE 79,Air,1
 Node,133,NODE 84,Air,1
 Node,134,NODE 89,Air,1
 Node,135,NODE 94,Air,1
 Node,136,NODE 99,Air,1
 Node,137,NODE 104,Air,1
 Node,138,NODE 109,Air,1
 Node,139,NODE 114,Air,1
 Node,140,NODE 119,Air,1
 Node,141,NODE 124,Air,1
 Node,142,NODE 129,Air,1
 Node,143,NODE 134,Air,1
 Node,144,NODE 139,Air,1
 Node,145,AIR TERMINAL SINGLE DUCT VAV REHEAT 2 DAMPER OUTLET,Air,1
 Node,146,AIR TERMINAL SINGLE DUCT VAV REHEAT 3 DAMPER OUTLET,Air,1
 Node,147,AIR TERMINAL SINGLE DUCT VAV REHEAT 4 DAMPER OUTLET,Air,1
 Node,148,AIR TERMINAL SINGLE DUCT VAV REHEAT 5 DAMPER OUTLET,Air,1
 Node,149,AIR TERMINAL SINGLE DUCT VAV REHEAT 6 DAMPER OUTLET,Air,1
 Node,150,AIR TERMINAL SINGLE DUCT VAV REHEAT 7 DAMPER OUTLET,Air,1
 Node,151,AIR TERMINAL SINGLE DUCT VAV REHEAT 8 DAMPER OUTLET,Air,1
 Node,152,AIR TERMINAL SINGLE DUCT VAV REHEAT 9 DAMPER OUTLET,Air,1
 Node,153,AIR TERMINAL SINGLE DUCT VAV REHEAT 10 DAMPER OUTLET,Air,1
 Node,154,AIR TERMINAL SINGLE DUCT VAV REHEAT 11 DAMPER OUTLET,Air,1
 Node,155,AIR TERMINAL SINGLE DUCT VAV REHEAT 12 DAMPER OUTLET,Air,1
 Node,156,AIR TERMINAL SINGLE DUCT VAV REHEAT 13 DAMPER OUTLET,Air,1
 Node,157,AIR TERMINAL SINGLE DUCT VAV REHEAT 14 DAMPER OUTLET,Air,1
 Node,158,AIR TERMINAL SINGLE DUCT VAV REHEAT 15 DAMPER OUTLET,Air,1
 Node,159,AIR TERMINAL SINGLE DUCT VAV REHEAT 16 DAMPER OUTLET,Air,1
 Node,160,AIR TERMINAL SINGLE DUCT VAV REHEAT 17 DAMPER OUTLET,Air,1
 Node,161,AIR TERMINAL SINGLE DUCT VAV REHEAT 18 DAMPER OUTLET,Air,1
 Node,162,AIR TERMINAL SINGLE DUCT VAV REHEAT 19 DAMPER OUTLET,Air,1
 Node,163,AIR TERMINAL SINGLE DUCT VAV REHEAT 20 DAMPER OUTLET,Air,1
 Node,164,AIR TERMINAL SINGLE DUCT VAV REHEAT 21 DAMPER OUTLET,Air,1
 Node,165,NODE 27,Air,1
! ===============================================================
! Suspicious nodes have 0 references.  It is normal for some nodes, however.
! Listing nodes with 0 references (culled from previous list):
! <Suspicious Node>,<NodeNumber>,<Node Name>,<Node Fluid Type>,<# Times Node Referenced After Definition>
 Suspicious Node,83,NODE 16,Air,0
 Suspicious Node,85,NODE 12,Air,0
 Suspicious Node,87,NODE 7,Air,0
 Suspicious Node,89,NODE 9,Air,0
 Suspicious Node,91,NODE 8,Air,0
 Suspicious Node,93,NODE 10,Air,0
 Suspicious Node,95,NODE 3,Air,0
 Suspicious Node,97,NODE 4,Air,0
 Suspicious Node,99,NODE 15,Air,0
 Suspicious Node,101,NODE 6,Air,0
 Suspicious Node,103,NODE 2,Air,0
 Suspicious Node,105,NODE 13,Air,0
 Suspicious Node,107,NODE 1,Air,0
 Suspicious Node,109,NODE 17,Air,0
 Suspicious Node,111,NODE 5,Air,0
 Suspicious Node,113,NODE 18,Air,0
 Suspicious Node,115,NODE 19,Air,0
 Suspicious Node,117,NODE 11,Air,0
 Suspicious Node,119,NODE 20,Air,0
 Suspicious Node,121,NODE 14,Air,0
! ===============================================================
! <#Branch Lists>,<Number of Branch Lists>
 #Branch Lists,3
! <Branch List>,<Branch List Count>,<Branch List Name>,<Loop Name>,<Loop Type>,<Number of Branches>
! <Branch>,<Branch Count>,<Branch Name>,<Loop Name>,<Loop Type>,<Branch Inlet Node Name>,<Branch Outlet Node Name>
 Branch List,1,BRANCHLIST {89EEB30D-293C-4B23-8C24-4F12A2D6386D},AIR LOOP HVAC 1,Air,1
   Branch,1,BRANCH {38CE46AC-348E-4527-B4B4-65CE2F1DD46D},AIR LOOP HVAC 1,Air,NODE 21,NODE 22
 Branch List,2,PLANT LOOP 1 SUPPLY BRANCHES,PLANT LOOP 1,Plant Supply,4
   Branch,1,PLANT LOOP 1 SUPPLY INLET BRANCH,PLANT LOOP 1,Plant Supply,NODE 31,NODE 37
   Branch,2,PLANT LOOP 1 SUPPLY BRANCH 1,PLANT LOOP 1,Plant Supply,NODE 33,NODE 38
   Branch,3,PLANT LOOP 1 SUPPLY BRANCH 2,PLANT LOOP 1,Plant Supply,NODE 39,NODE 40
   Branch,4,PLANT LOOP 1 SUPPLY OUTLET BRANCH,PLANT LOOP 1,Plant Supply,NODE 41,NODE 32
 Branch List,3,PLANT LOOP 1 DEMAND BRANCHES,PLANT LOOP 1,Plant Demand,24
   Branch,1,PLANT LOOP 1 DEMAND INLET BRANCH,PLANT LOOP 1,Plant Demand,NODE 34,PLANT LOOP 1 DEMAND INLET PIPE NODE
   Branch,2,PLANT LOOP 1 DEMAND BRANCH 1,PLANT LOOP 1,Plant Demand,NODE 36,NODE 42
   Branch,3,PLANT LOOP 1 DEMAND BRANCH 2,PLANT LOOP 1,Plant Demand,NODE 45,NODE 46
   Branch,4,PLANT LOOP 1 DEMAND BRANCH 3,PLANT LOOP 1,Plant Demand,NODE 50,NODE 51
   Branch,5,PLANT LOOP 1 DEMAND BRANCH 4,PLANT LOOP 1,Plant Demand,NODE 55,NODE 56
   Branch,6,PLANT LOOP 1 DEMAND BRANCH 5,PLANT LOOP 1,Plant Demand,NODE 60,NODE 61
   Branch,7,PLANT LOOP 1 DEMAND BRANCH 6,PLANT LOOP 1,Plant Demand,NODE 65,NODE 66
   Branch,8,PLANT LOOP 1 DEMAND BRANCH 7,PLANT LOOP 1,Plant Demand,NODE 70,NODE 71
   Branch,9,PLANT LOOP 1 DEMAND BRANCH 8,PLANT LOOP 1,Plant Demand,NODE 75,NODE 76
   Branch,10,PLANT LOOP 1 DEMAND BRANCH 9,PLANT LOOP 1,Plant Demand,NODE 80,NODE 81
   Branch,11,PLANT LOOP 1 DEMAND BRANCH 10,PLANT LOOP 1,Plant Demand,NODE 85,NODE 86
   Branch,12,PLANT LOOP 1 DEMAND BRANCH 11,PLANT LOOP 1,Plant Demand,NODE 90,NODE 91
   Branch,13,PLANT LOOP 1 DEMAND BRANCH 12,PLANT LOOP 1,Plant Demand,NODE 95,NODE 96
   Branch,14,PLANT LOOP 1 DEMAND BRANCH 13,PLANT LOOP 1,Plant Demand,NODE 100,NODE 101
   Branch,15,PLANT LOOP 1 DEMAND BRANCH 14,PLANT LOOP 1,Plant Demand,NODE 105,NODE 106
   Branch,16,PLANT LOOP 1 DEMAND BRANCH 15,PLANT LOOP 1,Plant Demand,NODE 110,NODE 111
   Branch,17,PLANT LOOP 1 DEMAND BRANCH 16,PLANT LOOP 1,Plant Demand,NODE 115,NODE 116
   Branch,18,PLANT LOOP 1 DEMAND BRANCH 17,PLANT LOOP 1,Plant Demand,NODE 120,NODE 121
   Branch,19,PLANT LOOP 1 DEMAND BRANCH 18,PLANT LOOP 1,Plant Demand,NODE 125,NODE 126
   Branch,20,PLANT LOOP 1 DEMAND BRANCH 19,PLANT LOOP 1,Plant Demand,NODE 130,NODE 131
   Branch,21,PLANT LOOP 1 DEMAND BRANCH 20,PLANT LOOP 1,Plant Demand,NODE 135,NODE 136
   Branch,22,PLANT LOOP 1 DEMAND BRANCH 21,PLANT LOOP 1,Plant Demand,NODE 140,NODE 141
   Branch,23,PLANT LOOP 1 DEMAND BYPASS BRANCH,PLANT LOOP 1,Plant Demand,PLANT LOOP 1 DEMAND BYPASS PIPE INLET NODE,PLANT LOOP 1 DEMAND BYPASS PIPE OUTLET NODE
   Branch,24,PLANT LOOP 1 DEMAND OUTLET BRANCH,PLANT LOOP 1,Plant Demand,PLANT LOOP 1 DEMAND OUTLET PIPE NODE,NODE 35
! ===============================================================
! <#Supply Air Paths>,<Number of Supply Air Paths>
 #Supply Air Paths,1
! <Supply Air Path>,<Supply Air Path Count>,<Supply Air Path Name>,<AirLoopHVAC Name>
! <#Components on Supply Air Path>,<Number of Components>
! <Supply Air Path Component>,<Component Count>,<Component Type>,<Component Name>,<AirLoopHVAC Name>
! <#Outlet Nodes on Supply Air Path Component>,<Number of Nodes>
! <Supply Air Path Component Nodes>,<Node Count>,<Component Type>,<Component Name>,<Inlet Node Name>,<Outlet Node Name>,<AirLoopHVAC Name>
 Supply Air Path,1,AIRLOOPHVAC:SUPPLYPATH {AF562493-E0F1-414E-B24A-55FD940372AC},AIR LOOP HVAC 1
   #Components on Supply Air Path,1
   Supply Air Path Component,1,AIRLOOPHVAC:ZONESPLITTER,AIR LOOP HVAC ZONE SPLITTER 1,AIR LOOP HVAC 1
     #Outlet Nodes on Supply Air Path Component,20
     Supply Air Path Component Nodes,1,AIRLOOPHVAC:ZONESPLITTER,AIR LOOP HVAC ZONE SPLITTER 1,NODE 23,NODE 44,AIR LOOP HVAC 1
     Supply Air Path Component Nodes,2,AIRLOOPHVAC:ZONESPLITTER,AIR LOOP HVAC ZONE SPLITTER 1,NODE 23,NODE 49,AIR LOOP HVAC 1
     Supply Air Path Component Nodes,3,AIRLOOPHVAC:ZONESPLITTER,AIR LOOP HVAC ZONE SPLITTER 1,NODE 23,NODE 54,AIR LOOP HVAC 1
     Supply Air Path Component Nodes,4,AIRLOOPHVAC:ZONESPLITTER,AIR LOOP HVAC ZONE SPLITTER 1,NODE 23,NODE 59,AIR LOOP HVAC 1
     Supply Air Path Component Nodes,5,AIRLOOPHVAC:ZONESPLITTER,AIR LOOP HVAC ZONE SPLITTER 1,NODE 23,NODE 64,AIR LOOP HVAC 1
     Supply Air Path Component Nodes,6,AIRLOOPHVAC:ZONESPLITTER,AIR LOOP HVAC ZONE SPLITTER 1,NODE 23,NODE 69,AIR LOOP HVAC 1
     Supply Air Path Component Nodes,7,AIRLOOPHVAC:ZONESPLITTER,AIR LOOP HVAC ZONE SPLITTER 1,NODE 23,NODE 74,AIR LOOP HVAC 1
     Supply Air Path Component Nodes,8,AIRLOOPHVAC:ZONESPLITTER,AIR LOOP HVAC ZONE SPLITTER 1,NODE 23,NODE 79,AIR LOOP HVAC 1
     Supply Air Path Component Nodes,9,AIRLOOPHVAC:ZONESPLITTER,AIR LOOP HVAC ZONE SPLITTER 1,NODE 23,NODE 84,AIR LOOP HVAC 1
     Supply Air Path Component Nodes,10,AIRLOOPHVAC:ZONESPLITTER,AIR LOOP HVAC ZONE SPLITTER 1,NODE 23,NODE 89,AIR LOOP HVAC 1
     Supply Air Path Component Nodes,11,AIRLOOPHVAC:ZONESPLITTER,AIR LOOP HVAC ZONE SPLITTER 1,NODE 23,NODE 94,AIR LOOP HVAC 1
     Supply Air Path Component Nodes,12,AIRLOOPHVAC:ZONESPLITTER,AIR LOOP HVAC ZONE SPLITTER 1,NODE 23,NODE 99,AIR LOOP HVAC 1
     Supply Air Path Component Nodes,13,AIRLOOPHVAC:ZONESPLITTER,AIR LOOP HVAC ZONE SPLITTER 1,NODE 23,NODE 104,AIR LOOP HVAC 1
     Supply Air Path Component Nodes,14,AIRLOOPHVAC:ZONESPLITTER,AIR LOOP HVAC ZONE SPLITTER 1,NODE 23,NODE 109,AIR LOOP HVAC 1
     Supply Air Path Component Nodes,15,AIRLOOPHVAC:ZONESPLITTER,AIR LOOP HVAC ZONE SPLITTER 1,NODE 23,NODE 114,AIR LOOP HVAC 1
     Supply Air Path Component Nodes,16,AIRLOOPHVAC:ZONESPLITTER,AIR LOOP HVAC ZONE SPLITTER 1,NODE 23,NODE 119,AIR LOOP HVAC 1
     Supply Air Path Component Nodes,17,AIRLOOPHVAC:ZONESPLITTER,AIR LOOP HVAC ZONE SPLITTER 1,NODE 23,NODE 124,AIR LOOP HVAC 1
     Supply Air Path Component Nodes,18,AIRLOOPHVAC:ZONESPLITTER,AIR LOOP HVAC ZONE SPLITTER 1,NODE 23,NODE 129,AIR LOOP HVAC 1
     Supply Air Path Component Nodes,19,AIRLOOPHVAC:ZONESPLITTER,AIR LOOP HVAC ZONE SPLITTER 1,NODE 23,NODE 134,AIR LOOP HVAC 1
     Supply Air Path Component Nodes,20,AIRLOOPHVAC:ZONESPLITTER,AIR LOOP HVAC ZONE SPLITTER 1,NODE 23,NODE 139,AIR LOOP HVAC 1
! <#Nodes on Supply Air Path>,<Number of Nodes>
! <Supply Air Path Node>,<Node Type>,<Node Count>,<Node Name>,<AirLoopHVAC Name>
#Nodes on Supply Air Path,21
   Supply Air Path Node,Inlet Node,1,NODE 23,AIR LOOP HVAC 1
   Supply Air Path Node,Outlet Node,2,NODE 44,AIR LOOP HVAC 1
   Supply Air Path Node,Outlet Node,3,NODE 49,AIR LOOP HVAC 1
   Supply Air Path Node,Outlet Node,4,NODE 54,AIR LOOP HVAC 1
   Supply Air Path Node,Outlet Node,5,NODE 59,AIR LOOP HVAC 1
   Supply Air Path Node,Outlet Node,6,NODE 64,AIR LOOP HVAC 1
   Supply Air Path Node,Outlet Node,7,NODE 69,AIR LOOP HVAC 1
   Supply Air Path Node,Outlet Node,8,NODE 74,AIR LOOP HVAC 1
   Supply Air Path Node,Outlet Node,9,NODE 79,AIR LOOP HVAC 1
   Supply Air Path Node,Outlet Node,10,NODE 84,AIR LOOP HVAC 1
   Supply Air Path Node,Outlet Node,11,NODE 89,AIR LOOP HVAC 1
   Supply Air Path Node,Outlet Node,12,NODE 94,AIR LOOP HVAC 1
   Supply Air Path Node,Outlet Node,13,NODE 99,AIR LOOP HVAC 1
   Supply Air Path Node,Outlet Node,14,NODE 104,AIR LOOP HVAC 1
   Supply Air Path Node,Outlet Node,15,NODE 109,AIR LOOP HVAC 1
   Supply Air Path Node,Outlet Node,16,NODE 114,AIR LOOP HVAC 1
   Supply Air Path Node,Outlet Node,17,NODE 119,AIR LOOP HVAC 1
   Supply Air Path Node,Outlet Node,18,NODE 124,AIR LOOP HVAC 1
   Supply Air Path Node,Outlet Node,19,NODE 129,AIR LOOP HVAC 1
   Supply Air Path Node,Outlet Node,20,NODE 134,AIR LOOP HVAC 1
   Supply Air Path Node,Outlet Node,21,NODE 139,AIR LOOP HVAC 1
! ===============================================================
! <#Return Air Paths>,<Number of Return Air Paths>
 #Return Air Paths,1
! <Return Air Path>,<Return Air Path Count>,<Return Air Path Name>,<AirLoopHVAC Name>
! <#Components on Return Air Path>,<Number of Components>
! <Return Air Path Component>,<Component Count>,<Component Type>,<Component Name>,<AirLoopHVAC Name>
! <#Inlet Nodes on Return Air Path Component>,<Number of Nodes>
! <Return Air Path Component Nodes>,<Node Count>,<Component Type>,<Component Name>,<Inlet Node Name>,<Outlet Node Name>,<AirLoopHVAC Name>
 Return Air Path,1,AIRLOOPHVAC:RETURNPATH {50209E45-34F0-48C6-9FC6-807E7305CF15},AIR LOOP HVAC 1
   #Components on Return Air Path,1
   Return Air Path Component,1,AIRLOOPHVAC:ZONEMIXER,AIR LOOP HVAC ZONE MIXER 1,AIR LOOP HVAC 1
     #Inlet Nodes on Return Air Path Component,20
     Return Air Path Component Nodes,1,AIRLOOPHVAC:ZONEMIXER,AIR LOOP HVAC ZONE MIXER 1,NODE 43,NODE 24,AIR LOOP HVAC 1
     Return Air Path Component Nodes,2,AIRLOOPHVAC:ZONEMIXER,AIR LOOP HVAC ZONE MIXER 1,NODE 48,NODE 24,AIR LOOP HVAC 1
     Return Air Path Component Nodes,3,AIRLOOPHVAC:ZONEMIXER,AIR LOOP HVAC ZONE MIXER 1,NODE 53,NODE 24,AIR LOOP HVAC 1
     Return Air Path Component Nodes,4,AIRLOOPHVAC:ZONEMIXER,AIR LOOP HVAC ZONE MIXER 1,NODE 58,NODE 24,AIR LOOP HVAC 1
     Return Air Path Component Nodes,5,AIRLOOPHVAC:ZONEMIXER,AIR LOOP HVAC ZONE MIXER 1,NODE 63,NODE 24,AIR LOOP HVAC 1
     Return Air Path Component Nodes,6,AIRLOOPHVAC:ZONEMIXER,AIR LOOP HVAC ZONE MIXER 1,NODE 68,NODE 24,AIR LOOP HVAC 1
     Return Air Path Component Nodes,7,AIRLOOPHVAC:ZONEMIXER,AIR LOOP HVAC ZONE MIXER 1,NODE 73,NODE 24,AIR LOOP HVAC 1
     Return Air Path Component Nodes,8,AIRLOOPHVAC:ZONEMIXER,AIR LOOP HVAC ZONE MIXER 1,NODE 78,NODE 24,AIR LOOP HVAC 1
     Return Air Path Component Nodes,9,AIRLOOPHVAC:ZONEMIXER,AIR LOOP HVAC ZONE MIXER 1,NODE 83,NODE 24,AIR LOOP HVAC 1
     Return Air Path Component Nodes,10,AIRLOOPHVAC:ZONEMIXER,AIR LOOP HVAC ZONE MIXER 1,NODE 88,NODE 24,AIR LOOP HVAC 1
     Return Air Path Component Nodes,11,AIRLOOPHVAC:ZONEMIXER,AIR LOOP HVAC ZONE MIXER 1,NODE 93,NODE 24,AIR LOOP HVAC 1
     Return Air Path Component Nodes,12,AIRLOOPHVAC:ZONEMIXER,AIR LOOP HVAC ZONE MIXER 1,NODE 98,NODE 24,AIR LOOP HVAC 1
     Return Air Path Component Nodes,13,AIRLOOPHVAC:ZONEMIXER,AIR LOOP HVAC ZONE MIXER 1,NODE 103,NODE 24,AIR LOOP HVAC 1
     Return Air Path Component Nodes,14,AIRLOOPHVAC:ZONEMIXER,AIR LOOP HVAC ZONE MIXER 1,NODE 108,NODE 24,AIR LOOP HVAC 1
     Return Air Path Component Nodes,15,AIRLOOPHVAC:ZONEMIXER,AIR LOOP HVAC ZONE MIXER 1,NODE 113,NODE 24,AIR LOOP HVAC 1
     Return Air Path Component Nodes,16,AIRLOOPHVAC:ZONEMIXER,AIR LOOP HVAC ZONE MIXER 1,NODE 118,NODE 24,AIR LOOP HVAC 1
     Return Air Path Component Nodes,17,AIRLOOPHVAC:ZONEMIXER,AIR LOOP HVAC ZONE MIXER 1,NODE 123,NODE 24,AIR LOOP HVAC 1
     Return Air Path Component Nodes,18,AIRLOOPHVAC:ZONEMIXER,AIR LOOP HVAC ZONE MIXER 1,NODE 128,NODE 24,AIR LOOP HVAC 1
     Return Air Path Component Nodes,19,AIRLOOPHVAC:ZONEMIXER,AIR LOOP HVAC ZONE MIXER 1,NODE 133,NODE 24,AIR LOOP HVAC 1
     Return Air Path Component Nodes,20,AIRLOOPHVAC:ZONEMIXER,AIR LOOP HVAC ZONE MIXER 1,NODE 138,NODE 24,AIR LOOP HVAC 1
! <#Nodes on Return Air Path>,<Number of Nodes>
! <Return Air Path Node>,<Node Type>,<Node Count>,<Node Name>,<AirLoopHVAC Name>
   #Nodes on Return Air Path,21
   Return Air Path Node,Outlet Node,1,NODE 24,AIR LOOP HVAC 1
   Return Air Path Node,Inlet Node,2,NODE 43,AIR LOOP HVAC 1
   Return Air Path Node,Inlet Node,3,NODE 48,AIR LOOP HVAC 1
   Return Air Path Node,Inlet Node,4,NODE 53,AIR LOOP HVAC 1
   Return Air Path Node,Inlet Node,5,NODE 58,AIR LOOP HVAC 1
   Return Air Path Node,Inlet Node,6,NODE 63,AIR LOOP HVAC 1
   Return Air Path Node,Inlet Node,7,NODE 68,AIR LOOP HVAC 1
   Return Air Path Node,Inlet Node,8,NODE 73,AIR LOOP HVAC 1
   Return Air Path Node,Inlet Node,9,NODE 78,AIR LOOP HVAC 1
   Return Air Path Node,Inlet Node,10,NODE 83,AIR LOOP HVAC 1
   Return Air Path Node,Inlet Node,11,NODE 88,AIR LOOP HVAC 1
   Return Air Path Node,Inlet Node,12,NODE 93,AIR LOOP HVAC 1
   Return Air Path Node,Inlet Node,13,NODE 98,AIR LOOP HVAC 1
   Return Air Path Node,Inlet Node,14,NODE 103,AIR LOOP HVAC 1
   Return Air Path Node,Inlet Node,15,NODE 108,AIR LOOP HVAC 1
   Return Air Path Node,Inlet Node,16,NODE 113,AIR LOOP HVAC 1
   Return Air Path Node,Inlet Node,17,NODE 118,AIR LOOP HVAC 1
   Return Air Path Node,Inlet Node,18,NODE 123,AIR LOOP HVAC 1
   Return Air Path Node,Inlet Node,19,NODE 128,AIR LOOP HVAC 1
   Return Air Path Node,Inlet Node,20,NODE 133,AIR LOOP HVAC 1
   Return Air Path Node,Inlet Node,21,NODE 138,AIR LOOP HVAC 1
! ===============================================================
! #Outdoor Air Nodes,<Number of Outdoor Air Nodes>
 #Outdoor Air Nodes,1                   
! <Outdoor Air Node>,<NodeNumber>,<Node Name>
 Outdoor Air Node,82,NODE 26
! ===============================================================
! <#Component Sets>,<Number of Component Sets>
 #Component Sets,74
! <Component Set>,<Component Set Count>,<Parent Object Type>,<Parent Object Name>,<Component Type>,<Component Name>,<Inlet Node ID>,<Outlet Node ID>,<Description>
 Component Set,1,BRANCH,BRANCH {38CE46AC-348E-4527-B4B4-65CE2F1DD46D},AIRLOOPHVAC:OUTDOORAIRSYSTEM,AIR LOOP HVAC OUTDOOR AIR SYSTEM 1,NODE 21,NODE 28,Air Nodes
 Component Set,2,BRANCH,BRANCH {38CE46AC-348E-4527-B4B4-65CE2F1DD46D},COILSYSTEM:COOLING:DX,COIL COOLING DX TWO SPEED 1 COILSYSTEM,NODE 28,NODE 29,Air Nodes
 Component Set,3,BRANCH,BRANCH {38CE46AC-348E-4527-B4B4-65CE2F1DD46D},COIL:HEATING:WATER,COIL HEATING WATER 1,NODE 29,NODE 30,Air Nodes
 Component Set,4,BRANCH,BRANCH {38CE46AC-348E-4527-B4B4-65CE2F1DD46D},FAN:VARIABLEVOLUME,FAN VARIABLE VOLUME 1,NODE 30,NODE 22,Air Nodes
 Component Set,5,BRANCH,PLANT LOOP 1 SUPPLY INLET BRANCH,PUMP:VARIABLESPEED,PUMP VARIABLE SPEED 1,NODE 31,NODE 37,Water Nodes
 Component Set,6,BRANCH,PLANT LOOP 1 SUPPLY BRANCH 1,BOILER:HOTWATER,BOILER HOT WATER 1,NODE 33,NODE 38,Hot Water Nodes
 Component Set,7,BRANCH,PLANT LOOP 1 SUPPLY BRANCH 2,PIPE:ADIABATIC,PIPE ADIABATIC 1,NODE 39,NODE 40,Pipe Nodes
 Component Set,8,BRANCH,PLANT LOOP 1 SUPPLY OUTLET BRANCH,PIPE:ADIABATIC,PIPE ADIABATIC 2,NODE 41,NODE 32,Pipe Nodes
 Component Set,9,BRANCH,PLANT LOOP 1 DEMAND INLET BRANCH,PIPE:ADIABATIC,PLANT LOOP 1 DEMAND INLET PIPE,NODE 34,PLANT LOOP 1 DEMAND INLET PIPE NODE,Pipe Nodes
 Component Set,10,BRANCH,PLANT LOOP 1 DEMAND BRANCH 1,COIL:HEATING:WATER,COIL HEATING WATER 1,NODE 36,NODE 42,Water Nodes
 Component Set,11,BRANCH,PLANT LOOP 1 DEMAND BRANCH 2,COIL:HEATING:WATER,COIL HEATING WATER 3,NODE 45,NODE 46,Water Nodes
 Component Set,12,BRANCH,PLANT LOOP 1 DEMAND BRANCH 3,COIL:HEATING:WATER,COIL HEATING WATER 4,NODE 50,NODE 51,Water Nodes
 Component Set,13,BRANCH,PLANT LOOP 1 DEMAND BRANCH 4,COIL:HEATING:WATER,COIL HEATING WATER 5,NODE 55,NODE 56,Water Nodes
 Component Set,14,BRANCH,PLANT LOOP 1 DEMAND BRANCH 5,COIL:HEATING:WATER,COIL HEATING WATER 6,NODE 60,NODE 61,Water Nodes
 Component Set,15,BRANCH,PLANT LOOP 1 DEMAND BRANCH 6,COIL:HEATING:WATER,COIL HEATING WATER 7,NODE 65,NODE 66,Water Nodes
 Component Set,16,BRANCH,PLANT LOOP 1 DEMAND BRANCH 7,COIL:HEATING:WATER,COIL HEATING WATER 8,NODE 70,NODE 71,Water Nodes
 Component Set,17,BRANCH,PLANT LOOP 1 DEMAND BRANCH 8,COIL:HEATING:WATER,COIL HEATING WATER 9,NODE 75,NODE 76,Water Nodes
 Component Set,18,BRANCH,PLANT LOOP 1 DEMAND BRANCH 9,COIL:HEATING:WATER,COIL HEATING WATER 10,NODE 80,NODE 81,Water Nodes
 Component Set,19,BRANCH,PLANT LOOP 1 DEMAND BRANCH 10,COIL:HEATING:WATER,COIL HEATING WATER 11,NODE 85,NODE 86,Water Nodes
 Component Set,20,BRANCH,PLANT LOOP 1 DEMAND BRANCH 11,COIL:HEATING:WATER,COIL HEATING WATER 12,NODE 90,NODE 91,Water Nodes
 Component Set,21,BRANCH,PLANT LOOP 1 DEMAND BRANCH 12,COIL:HEATING:WATER,COIL HEATING WATER 13,NODE 95,NODE 96,Water Nodes
 Component Set,22,BRANCH,PLANT LOOP 1 DEMAND BRANCH 13,COIL:HEATING:WATER,COIL HEATING WATER 14,NODE 100,NODE 101,Water Nodes
 Component Set,23,BRANCH,PLANT LOOP 1 DEMAND BRANCH 14,COIL:HEATING:WATER,COIL HEATING WATER 15,NODE 105,NODE 106,Water Nodes
 Component Set,24,BRANCH,PLANT LOOP 1 DEMAND BRANCH 15,COIL:HEATING:WATER,COIL HEATING WATER 16,NODE 110,NODE 111,Water Nodes
 Component Set,25,BRANCH,PLANT LOOP 1 DEMAND BRANCH 16,COIL:HEATING:WATER,COIL HEATING WATER 17,NODE 115,NODE 116,Water Nodes
 Component Set,26,BRANCH,PLANT LOOP 1 DEMAND BRANCH 17,COIL:HEATING:WATER,COIL HEATING WATER 18,NODE 120,NODE 121,Water Nodes
 Component Set,27,BRANCH,PLANT LOOP 1 DEMAND BRANCH 18,COIL:HEATING:WATER,COIL HEATING WATER 19,NODE 125,NODE 126,Water Nodes
 Component Set,28,BRANCH,PLANT LOOP 1 DEMAND BRANCH 19,COIL:HEATING:WATER,COIL HEATING WATER 20,NODE 130,NODE 131,Water Nodes
 Component Set,29,BRANCH,PLANT LOOP 1 DEMAND BRANCH 20,COIL:HEATING:WATER,COIL HEATING WATER 21,NODE 135,NODE 136,Water Nodes
 Component Set,30,BRANCH,PLANT LOOP 1 DEMAND BRANCH 21,COIL:HEATING:WATER,COIL HEATING WATER 22,NODE 140,NODE 141,Water Nodes
 Component Set,31,BRANCH,PLANT LOOP 1 DEMAND BYPASS BRANCH,PIPE:ADIABATIC,PLANT LOOP 1 DEMAND BYPASS PIPE,PLANT LOOP 1 DEMAND BYPASS PIPE INLET NODE,PLANT LOOP 1 DEMAND BYPASS PIPE OUTLET NODE,Pipe Nodes
 Component Set,32,BRANCH,PLANT LOOP 1 DEMAND OUTLET BRANCH,PIPE:ADIABATIC,PLANT LOOP 1 DEMAND OUTLET PIPE,PLANT LOOP 1 DEMAND OUTLET PIPE NODE,NODE 35,Pipe Nodes
 Component Set,33,ZONEHVAC:AIRDISTRIBUTIONUNIT,ZONEHVAC:AIRDISTRIBUTIONUNIT {4E27F5DC-A631-43F5-BEB6-2EC5DCC127C2},AIRTERMINAL:SINGLEDUCT:VAV:REHEAT,AIR TERMINAL SINGLE DUCT VAV REHEAT 2,NODE 44,NODE 25,Air Nodes
 Component Set,34,ZONEHVAC:AIRDISTRIBUTIONUNIT,ZONEHVAC:AIRDISTRIBUTIONUNIT {B80EEDB6-C541-414A-AF4C-E503329881EA},AIRTERMINAL:SINGLEDUCT:VAV:REHEAT,AIR TERMINAL SINGLE DUCT VAV REHEAT 3,NODE 49,NODE 47,Air Nodes
 Component Set,35,ZONEHVAC:AIRDISTRIBUTIONUNIT,ZONEHVAC:AIRDISTRIBUTIONUNIT {F809EEC0-089A-496F-AE7D-F2BDA8833816},AIRTERMINAL:SINGLEDUCT:VAV:REHEAT,AIR TERMINAL SINGLE DUCT VAV REHEAT 4,NODE 54,NODE 52,Air Nodes
 Component Set,36,ZONEHVAC:AIRDISTRIBUTIONUNIT,ZONEHVAC:AIRDISTRIBUTIONUNIT {5C1591F7-34A6-418B-8D50-682DE7EC102D},AIRTERMINAL:SINGLEDUCT:VAV:REHEAT,AIR TERMINAL SINGLE DUCT VAV REHEAT 5,NODE 59,NODE 57,Air Nodes
 Component Set,37,ZONEHVAC:AIRDISTRIBUTIONUNIT,ZONEHVAC:AIRDISTRIBUTIONUNIT {7539FB33-E2E2-4BAB-9FFD-A14E67F7C63E},AIRTERMINAL:SINGLEDUCT:VAV:REHEAT,AIR TERMINAL SINGLE DUCT VAV REHEAT 6,NODE 64,NODE 62,Air Nodes
 Component Set,38,ZONEHVAC:AIRDISTRIBUTIONUNIT,ZONEHVAC:AIRDISTRIBUTIONUNIT {09DBA915-A3AE-4FDF-B6DA-8190E9950820},AIRTERMINAL:SINGLEDUCT:VAV:REHEAT,AIR TERMINAL SINGLE DUCT VAV REHEAT 7,NODE 69,NODE 67,Air Nodes
 Component Set,39,ZONEHVAC:AIRDISTRIBUTIONUNIT,ZONEHVAC:AIRDISTRIBUTIONUNIT {4836CD68-B603-4B7A-B907-165CA24B52A9},AIRTERMINAL:SINGLEDUCT:VAV:REHEAT,AIR TERMINAL SINGLE DUCT VAV REHEAT 8,NODE 74,NODE 72,Air Nodes
 Component Set,40,ZONEHVAC:AIRDISTRIBUTIONUNIT,ZONEHVAC:AIRDISTRIBUTIONUNIT {25345B51-FFBD-4397-94E1-096529C2DDEB},AIRTERMINAL:SINGLEDUCT:VAV:REHEAT,AIR TERMINAL SINGLE DUCT VAV REHEAT 9,NODE 79,NODE 77,Air Nodes
 Component Set,41,ZONEHVAC:AIRDISTRIBUTIONUNIT,ZONEHVAC:AIRDISTRIBUTIONUNIT {FDE0955D-EAF3-4D7C-B09B-941FC818EFB9},AIRTERMINAL:SINGLEDUCT:VAV:REHEAT,AIR TERMINAL SINGLE DUCT VAV REHEAT 10,NODE 84,NODE 82,Air Nodes
 Component Set,42,ZONEHVAC:AIRDISTRIBUTIONUNIT,ZONEHVAC:AIRDISTRIBUTIONUNIT {DC39A30D-AC56-4A1E-BD89-289D3B68BED7},AIRTERMINAL:SINGLEDUCT:VAV:REHEAT,AIR TERMINAL SINGLE DUCT VAV REHEAT 11,NODE 89,NODE 87,Air Nodes
 Component Set,43,ZONEHVAC:AIRDISTRIBUTIONUNIT,ZONEHVAC:AIRDISTRIBUTIONUNIT {F4095022-8678-42ED-8119-6505E17F8CE3},AIRTERMINAL:SINGLEDUCT:VAV:REHEAT,AIR TERMINAL SINGLE DUCT VAV REHEAT 12,NODE 94,NODE 92,Air Nodes
 Component Set,44,ZONEHVAC:AIRDISTRIBUTIONUNIT,ZONEHVAC:AIRDISTRIBUTIONUNIT {D73C05D8-C4AF-4E05-8C03-836F13203EB6},AIRTERMINAL:SINGLEDUCT:VAV:REHEAT,AIR TERMINAL SINGLE DUCT VAV REHEAT 13,NODE 99,NODE 97,Air Nodes
 Component Set,45,ZONEHVAC:AIRDISTRIBUTIONUNIT,ZONEHVAC:AIRDISTRIBUTIONUNIT {A11A79D8-42B2-4C9D-AA01-028F9E4E28D8},AIRTERMINAL:SINGLEDUCT:VAV:REHEAT,AIR TERMINAL SINGLE DUCT VAV REHEAT 14,NODE 104,NODE 102,Air Nodes
 Component Set,46,ZONEHVAC:AIRDISTRIBUTIONUNIT,ZONEHVAC:AIRDISTRIBUTIONUNIT {B937D8F4-EA65-4153-A31C-FF9A5113A275},AIRTERMINAL:SINGLEDUCT:VAV:REHEAT,AIR TERMINAL SINGLE DUCT VAV REHEAT 15,NODE 109,NODE 107,Air Nodes
 Component Set,47,ZONEHVAC:AIRDISTRIBUTIONUNIT,ZONEHVAC:AIRDISTRIBUTIONUNIT {6BC305E5-BDCB-440C-9F58-D14DDD695A29},AIRTERMINAL:SINGLEDUCT:VAV:REHEAT,AIR TERMINAL SINGLE DUCT VAV REHEAT 16,NODE 114,NODE 112,Air Nodes
 Component Set,48,ZONEHVAC:AIRDISTRIBUTIONUNIT,ZONEHVAC:AIRDISTRIBUTIONUNIT {CC2250A5-6832-4AAA-9F2F-5DFF356ABFFF},AIRTERMINAL:SINGLEDUCT:VAV:REHEAT,AIR TERMINAL SINGLE DUCT VAV REHEAT 17,NODE 119,NODE 117,Air Nodes
 Component Set,49,ZONEHVAC:AIRDISTRIBUTIONUNIT,ZONEHVAC:AIRDISTRIBUTIONUNIT {0AD1DA2D-1BB9-4D3B-87D2-8364EB43B3B2},AIRTERMINAL:SINGLEDUCT:VAV:REHEAT,AIR TERMINAL SINGLE DUCT VAV REHEAT 18,NODE 124,NODE 122,Air Nodes
 Component Set,50,ZONEHVAC:AIRDISTRIBUTIONUNIT,ZONEHVAC:AIRDISTRIBUTIONUNIT {21C89334-4412-4045-AF43-DF64E09226AC},AIRTERMINAL:SINGLEDUCT:VAV:REHEAT,AIR TERMINAL SINGLE DUCT VAV REHEAT 19,NODE 129,NODE 127,Air Nodes
 Component Set,51,ZONEHVAC:AIRDISTRIBUTIONUNIT,ZONEHVAC:AIRDISTRIBUTIONUNIT {D4F140E3-70FF-4D21-AE7F-5E7A711D35D7},AIRTERMINAL:SINGLEDUCT:VAV:REHEAT,AIR TERMINAL SINGLE DUCT VAV REHEAT 20,NODE 134,NODE 132,Air Nodes
 Component Set,52,ZONEHVAC:AIRDISTRIBUTIONUNIT,ZONEHVAC:AIRDISTRIBUTIONUNIT {D1BEBC74-A5B0-4465-8F7F-2ED69C59D6D0},AIRTERMINAL:SINGLEDUCT:VAV:REHEAT,AIR TERMINAL SINGLE DUCT VAV REHEAT 21,NODE 139,NODE 137,Air Nodes
 Component Set,53,AIRTERMINAL:SINGLEDUCT:VAV:REHEAT,AIR TERMINAL SINGLE DUCT VAV REHEAT 2,COIL:HEATING:WATER,COIL HEATING WATER 3,AIR TERMINAL SINGLE DUCT VAV REHEAT 2 DAMPER OUTLET,NODE 25,Air Nodes
 Component Set,54,AIRTERMINAL:SINGLEDUCT:VAV:REHEAT,AIR TERMINAL SINGLE DUCT VAV REHEAT 3,COIL:HEATING:WATER,COIL HEATING WATER 4,AIR TERMINAL SINGLE DUCT VAV REHEAT 3 DAMPER OUTLET,NODE 47,Air Nodes
 Component Set,55,AIRTERMINAL:SINGLEDUCT:VAV:REHEAT,AIR TERMINAL SINGLE DUCT VAV REHEAT 4,COIL:HEATING:WATER,COIL HEATING WATER 5,AIR TERMINAL SINGLE DUCT VAV REHEAT 4 DAMPER OUTLET,NODE 52,Air Nodes
 Component Set,56,AIRTERMINAL:SINGLEDUCT:VAV:REHEAT,AIR TERMINAL SINGLE DUCT VAV REHEAT 5,COIL:HEATING:WATER,COIL HEATING WATER 6,AIR TERMINAL SINGLE DUCT VAV REHEAT 5 DAMPER OUTLET,NODE 57,Air Nodes
 Component Set,57,AIRTERMINAL:SINGLEDUCT:VAV:REHEAT,AIR TERMINAL SINGLE DUCT VAV REHEAT 6,COIL:HEATING:WATER,COIL HEATING WATER 7,AIR TERMINAL SINGLE DUCT VAV REHEAT 6 DAMPER OUTLET,NODE 62,Air Nodes
 Component Set,58,AIRTERMINAL:SINGLEDUCT:VAV:REHEAT,AIR TERMINAL SINGLE DUCT VAV REHEAT 7,COIL:HEATING:WATER,COIL HEATING WATER 8,AIR TERMINAL SINGLE DUCT VAV REHEAT 7 DAMPER OUTLET,NODE 67,Air Nodes
 Component Set,59,AIRTERMINAL:SINGLEDUCT:VAV:REHEAT,AIR TERMINAL SINGLE DUCT VAV REHEAT 8,COIL:HEATING:WATER,COIL HEATING WATER 9,AIR TERMINAL SINGLE DUCT VAV REHEAT 8 DAMPER OUTLET,NODE 72,Air Nodes
 Component Set,60,AIRTERMINAL:SINGLEDUCT:VAV:REHEAT,AIR TERMINAL SINGLE DUCT VAV REHEAT 9,COIL:HEATING:WATER,COIL HEATING WATER 10,AIR TERMINAL SINGLE DUCT VAV REHEAT 9 DAMPER OUTLET,NODE 77,Air Nodes
 Component Set,61,AIRTERMINAL:SINGLEDUCT:VAV:REHEAT,AIR TERMINAL SINGLE DUCT VAV REHEAT 10,COIL:HEATING:WATER,COIL HEATING WATER 11,AIR TERMINAL SINGLE DUCT VAV REHEAT 10 DAMPER OUTLET,NODE 82,Air Nodes
 Component Set,62,AIRTERMINAL:SINGLEDUCT:VAV:REHEAT,AIR TERMINAL SINGLE DUCT VAV REHEAT 11,COIL:HEATING:WATER,COIL HEATING WATER 12,AIR TERMINAL SINGLE DUCT VAV REHEAT 11 DAMPER OUTLET,NODE 87,Air Nodes
 Component Set,63,AIRTERMINAL:SINGLEDUCT:VAV:REHEAT,AIR TERMINAL SINGLE DUCT VAV REHEAT 12,COIL:HEATING:WATER,COIL HEATING WATER 13,AIR TERMINAL SINGLE DUCT VAV REHEAT 12 DAMPER OUTLET,NODE 92,Air Nodes
 Component Set,64,AIRTERMINAL:SINGLEDUCT:VAV:REHEAT,AIR TERMINAL SINGLE DUCT VAV REHEAT 13,COIL:HEATING:WATER,COIL HEATING WATER 14,AIR TERMINAL SINGLE DUCT VAV REHEAT 13 DAMPER OUTLET,NODE 97,Air Nodes
 Component Set,65,AIRTERMINAL:SINGLEDUCT:VAV:REHEAT,AIR TERMINAL SINGLE DUCT VAV REHEAT 14,COIL:HEATING:WATER,COIL HEATING WATER 15,AIR TERMINAL SINGLE DUCT VAV REHEAT 14 DAMPER OUTLET,NODE 102,Air Nodes
 Component Set,66,AIRTERMINAL:SINGLEDUCT:VAV:REHEAT,AIR TERMINAL SINGLE DUCT VAV REHEAT 15,COIL:HEATING:WATER,COIL HEATING WATER 16,AIR TERMINAL SINGLE DUCT VAV REHEAT 15 DAMPER OUTLET,NODE 107,Air Nodes
 Component Set,67,AIRTERMINAL:SINGLEDUCT:VAV:REHEAT,AIR TERMINAL SINGLE DUCT VAV REHEAT 16,COIL:HEATING:WATER,COIL HEATING WATER 17,AIR TERMINAL SINGLE DUCT VAV REHEAT 16 DAMPER OUTLET,NODE 112,Air Nodes
 Component Set,68,AIRTERMINAL:SINGLEDUCT:VAV:REHEAT,AIR TERMINAL SINGLE DUCT VAV REHEAT 17,COIL:HEATING:WATER,COIL HEATING WATER 18,AIR TERMINAL SINGLE DUCT VAV REHEAT 17 DAMPER OUTLET,NODE 117,Air Nodes
 Component Set,69,AIRTERMINAL:SINGLEDUCT:VAV:REHEAT,AIR TERMINAL SINGLE DUCT VAV REHEAT 18,COIL:HEATING:WATER,COIL HEATING WATER 19,AIR TERMINAL SINGLE DUCT VAV REHEAT 18 DAMPER OUTLET,NODE 122,Air Nodes
 Component Set,70,AIRTERMINAL:SINGLEDUCT:VAV:REHEAT,AIR TERMINAL SINGLE DUCT VAV REHEAT 19,COIL:HEATING:WATER,COIL HEATING WATER 20,AIR TERMINAL SINGLE DUCT VAV REHEAT 19 DAMPER OUTLET,NODE 127,Air Nodes
 Component Set,71,AIRTERMINAL:SINGLEDUCT:VAV:REHEAT,AIR TERMINAL SINGLE DUCT VAV REHEAT 20,COIL:HEATING:WATER,COIL HEATING WATER 21,AIR TERMINAL SINGLE DUCT VAV REHEAT 20 DAMPER OUTLET,NODE 132,Air Nodes
 Component Set,72,AIRTERMINAL:SINGLEDUCT:VAV:REHEAT,AIR TERMINAL SINGLE DUCT VAV REHEAT 21,COIL:HEATING:WATER,COIL HEATING WATER 22,AIR TERMINAL SINGLE DUCT VAV REHEAT 21 DAMPER OUTLET,NODE 137,Air Nodes
 Component Set,73,AIRLOOPHVAC:OUTDOORAIRSYSTEM,AIR LOOP HVAC OUTDOOR AIR SYSTEM 1,OUTDOORAIR:MIXER,OUTDOORAIR:MIXER {7083327B-BDD1-433B-AD85-800A66D12D0F},NODE 26,NODE 28,Air Nodes
 Component Set,74,COILSYSTEM:COOLING:DX,COIL COOLING DX TWO SPEED 1 COILSYSTEM,COIL:COOLING:DX:TWOSPEED,COIL COOLING DX TWO SPEED 1,NODE 28,NODE 29,Air Nodes
! ===============================================================
! <# Plant Loops>,<Number of Plant Loops>
 #Plant Loops,1
! <Plant Loop>,<Plant Loop Name>,<Loop Type>,<Inlet Node Name>,<Outlet Node Name>,<Branch List>,<Connector List>
! <Plant Loop Connector>,<Connector Type>,<Connector Name>,<Loop Name>,<Loop Type>,<Number of Inlets/Outlets>
! <Plant Loop Connector Branches>,<Connector Node Count>,<Connector Type>,<Connector Name>,<Inlet Branch>,<Outlet Branch>,<Loop Name>,<Loop Type>
! <Plant Loop Connector Nodes>,<Connector Node Count>,<Connector Type>,<Connector Name>,<Inlet Node>,<Outlet Node>,<Loop Name>,<Loop Type>
! <Plant Loop Supply Connection>,<Plant Loop Name>,<Supply Side Outlet Node Name>,<Demand Side Inlet Node Name>
! <Plant Loop Return Connection>,<Plant Loop Name>,<Demand Side Outlet Node Name>,<Supply Side Inlet Node Name>
 Plant Loop,PLANT LOOP 1,Demand,NODE 34,NODE 35,PLANT LOOP 1 DEMAND BRANCHES,PLANT LOOP 1 DEMAND CONNECTOR LIST
   Plant Loop Connector,Splitter,PLANT LOOP 1 DEMAND SPLITTER,PLANT LOOP 1,Demand,22
     Plant Loop Connector Branches,1,Splitter,PLANT LOOP 1 DEMAND SPLITTER,PLANT LOOP 1 DEMAND INLET BRANCH,PLANT LOOP 1 DEMAND BRANCH 1,PLANT LOOP 1,Demand
     Plant Loop Connector Nodes,   1,Splitter,PLANT LOOP 1 DEMAND SPLITTER,PLANT LOOP 1 DEMAND INLET PIPE NODE,NODE 36,PLANT LOOP 1,Demand
     Plant Loop Connector Branches,2,Splitter,PLANT LOOP 1 DEMAND SPLITTER,PLANT LOOP 1 DEMAND INLET BRANCH,PLANT LOOP 1 DEMAND BRANCH 2,PLANT LOOP 1,Demand
     Plant Loop Connector Nodes,   2,Splitter,PLANT LOOP 1 DEMAND SPLITTER,PLANT LOOP 1 DEMAND INLET PIPE NODE,NODE 45,PLANT LOOP 1,Demand
     Plant Loop Connector Branches,3,Splitter,PLANT LOOP 1 DEMAND SPLITTER,PLANT LOOP 1 DEMAND INLET BRANCH,PLANT LOOP 1 DEMAND BRANCH 3,PLANT LOOP 1,Demand
     Plant Loop Connector Nodes,   3,Splitter,PLANT LOOP 1 DEMAND SPLITTER,PLANT LOOP 1 DEMAND INLET PIPE NODE,NODE 50,PLANT LOOP 1,Demand
     Plant Loop Connector Branches,4,Splitter,PLANT LOOP 1 DEMAND SPLITTER,PLANT LOOP 1 DEMAND INLET BRANCH,PLANT LOOP 1 DEMAND BRANCH 4,PLANT LOOP 1,Demand
     Plant Loop Connector Nodes,   4,Splitter,PLANT LOOP 1 DEMAND SPLITTER,PLANT LOOP 1 DEMAND INLET PIPE NODE,NODE 55,PLANT LOOP 1,Demand
     Plant Loop Connector Branches,5,Splitter,PLANT LOOP 1 DEMAND SPLITTER,PLANT LOOP 1 DEMAND INLET BRANCH,PLANT LOOP 1 DEMAND BRANCH 5,PLANT LOOP 1,Demand
     Plant Loop Connector Nodes,   5,Splitter,PLANT LOOP 1 DEMAND SPLITTER,PLANT LOOP 1 DEMAND INLET PIPE NODE,NODE 60,PLANT LOOP 1,Demand
     Plant Loop Connector Branches,6,Splitter,PLANT LOOP 1 DEMAND SPLITTER,PLANT LOOP 1 DEMAND INLET BRANCH,PLANT LOOP 1 DEMAND BRANCH 6,PLANT LOOP 1,Demand
     Plant Loop Connector Nodes,   6,Splitter,PLANT LOOP 1 DEMAND SPLITTER,PLANT LOOP 1 DEMAND INLET PIPE NODE,NODE 65,PLANT LOOP 1,Demand
     Plant Loop Connector Branches,7,Splitter,PLANT LOOP 1 DEMAND SPLITTER,PLANT LOOP 1 DEMAND INLET BRANCH,PLANT LOOP 1 DEMAND BRANCH 7,PLANT LOOP 1,Demand
     Plant Loop Connector Nodes,   7,Splitter,PLANT LOOP 1 DEMAND SPLITTER,PLANT LOOP 1 DEMAND INLET PIPE NODE,NODE 70,PLANT LOOP 1,Demand
     Plant Loop Connector Branches,8,Splitter,PLANT LOOP 1 DEMAND SPLITTER,PLANT LOOP 1 DEMAND INLET BRANCH,PLANT LOOP 1 DEMAND BRANCH 8,PLANT LOOP 1,Demand
     Plant Loop Connector Nodes,   8,Splitter,PLANT LOOP 1 DEMAND SPLITTER,PLANT LOOP 1 DEMAND INLET PIPE NODE,NODE 75,PLANT LOOP 1,Demand
     Plant Loop Connector Branches,9,Splitter,PLANT LOOP 1 DEMAND SPLITTER,PLANT LOOP 1 DEMAND INLET BRANCH,PLANT LOOP 1 DEMAND BRANCH 9,PLANT LOOP 1,Demand
     Plant Loop Connector Nodes,   9,Splitter,PLANT LOOP 1 DEMAND SPLITTER,PLANT LOOP 1 DEMAND INLET PIPE NODE,NODE 80,PLANT LOOP 1,Demand
     Plant Loop Connector Branches,10,Splitter,PLANT LOOP 1 DEMAND SPLITTER,PLANT LOOP 1 DEMAND INLET BRANCH,PLANT LOOP 1 DEMAND BRANCH 10,PLANT LOOP 1,Demand
     Plant Loop Connector Nodes,   10,Splitter,PLANT LOOP 1 DEMAND SPLITTER,PLANT LOOP 1 DEMAND INLET PIPE NODE,NODE 85,PLANT LOOP 1,Demand
     Plant Loop Connector Branches,11,Splitter,PLANT LOOP 1 DEMAND SPLITTER,PLANT LOOP 1 DEMAND INLET BRANCH,PLANT LOOP 1 DEMAND BRANCH 11,PLANT LOOP 1,Demand
     Plant Loop Connector Nodes,   11,Splitter,PLANT LOOP 1 DEMAND SPLITTER,PLANT LOOP 1 DEMAND INLET PIPE NODE,NODE 90,PLANT LOOP 1,Demand
     Plant Loop Connector Branches,12,Splitter,PLANT LOOP 1 DEMAND SPLITTER,PLANT LOOP 1 DEMAND INLET BRANCH,PLANT LOOP 1 DEMAND BRANCH 12,PLANT LOOP 1,Demand
     Plant Loop Connector Nodes,   12,Splitter,PLANT LOOP 1 DEMAND SPLITTER,PLANT LOOP 1 DEMAND INLET PIPE NODE,NODE 95,PLANT LOOP 1,Demand
     Plant Loop Connector Branches,13,Splitter,PLANT LOOP 1 DEMAND SPLITTER,PLANT LOOP 1 DEMAND INLET BRANCH,PLANT LOOP 1 DEMAND BRANCH 13,PLANT LOOP 1,Demand
     Plant Loop Connector Nodes,   13,Splitter,PLANT LOOP 1 DEMAND SPLITTER,PLANT LOOP 1 DEMAND INLET PIPE NODE,NODE 100,PLANT LOOP 1,Demand
     Plant Loop Connector Branches,14,Splitter,PLANT LOOP 1 DEMAND SPLITTER,PLANT LOOP 1 DEMAND INLET BRANCH,PLANT LOOP 1 DEMAND BRANCH 14,PLANT LOOP 1,Demand
     Plant Loop Connector Nodes,   14,Splitter,PLANT LOOP 1 DEMAND SPLITTER,PLANT LOOP 1 DEMAND INLET PIPE NODE,NODE 105,PLANT LOOP 1,Demand
     Plant Loop Connector Branches,15,Splitter,PLANT LOOP 1 DEMAND SPLITTER,PLANT LOOP 1 DEMAND INLET BRANCH,PLANT LOOP 1 DEMAND BRANCH 15,PLANT LOOP 1,Demand
     Plant Loop Connector Nodes,   15,Splitter,PLANT LOOP 1 DEMAND SPLITTER,PLANT LOOP 1 DEMAND INLET PIPE NODE,NODE 110,PLANT LOOP 1,Demand
     Plant Loop Connector Branches,16,Splitter,PLANT LOOP 1 DEMAND SPLITTER,PLANT LOOP 1 DEMAND INLET BRANCH,PLANT LOOP 1 DEMAND BRANCH 16,PLANT LOOP 1,Demand
     Plant Loop Connector Nodes,   16,Splitter,PLANT LOOP 1 DEMAND SPLITTER,PLANT LOOP 1 DEMAND INLET PIPE NODE,NODE 115,PLANT LOOP 1,Demand
     Plant Loop Connector Branches,17,Splitter,PLANT LOOP 1 DEMAND SPLITTER,PLANT LOOP 1 DEMAND INLET BRANCH,PLANT LOOP 1 DEMAND BRANCH 17,PLANT LOOP 1,Demand
     Plant Loop Connector Nodes,   17,Splitter,PLANT LOOP 1 DEMAND SPLITTER,PLANT LOOP 1 DEMAND INLET PIPE NODE,NODE 120,PLANT LOOP 1,Demand
     Plant Loop Connector Branches,18,Splitter,PLANT LOOP 1 DEMAND SPLITTER,PLANT LOOP 1 DEMAND INLET BRANCH,PLANT LOOP 1 DEMAND BRANCH 18,PLANT LOOP 1,Demand
     Plant Loop Connector Nodes,   18,Splitter,PLANT LOOP 1 DEMAND SPLITTER,PLANT LOOP 1 DEMAND INLET PIPE NODE,NODE 125,PLANT LOOP 1,Demand
     Plant Loop Connector Branches,19,Splitter,PLANT LOOP 1 DEMAND SPLITTER,PLANT LOOP 1 DEMAND INLET BRANCH,PLANT LOOP 1 DEMAND BRANCH 19,PLANT LOOP 1,Demand
     Plant Loop Connector Nodes,   19,Splitter,PLANT LOOP 1 DEMAND SPLITTER,PLANT LOOP 1 DEMAND INLET PIPE NODE,NODE 130,PLANT LOOP 1,Demand
     Plant Loop Connector Branches,20,Splitter,PLANT LOOP 1 DEMAND SPLITTER,PLANT LOOP 1 DEMAND INLET BRANCH,PLANT LOOP 1 DEMAND BRANCH 20,PLANT LOOP 1,Demand
     Plant Loop Connector Nodes,   20,Splitter,PLANT LOOP 1 DEMAND SPLITTER,PLANT LOOP 1 DEMAND INLET PIPE NODE,NODE 135,PLANT LOOP 1,Demand
     Plant Loop Connector Branches,21,Splitter,PLANT LOOP 1 DEMAND SPLITTER,PLANT LOOP 1 DEMAND INLET BRANCH,PLANT LOOP 1 DEMAND BRANCH 21,PLANT LOOP 1,Demand
     Plant Loop Connector Nodes,   21,Splitter,PLANT LOOP 1 DEMAND SPLITTER,PLANT LOOP 1 DEMAND INLET PIPE NODE,NODE 140,PLANT LOOP 1,Demand
     Plant Loop Connector Branches,22,Splitter,PLANT LOOP 1 DEMAND SPLITTER,PLANT LOOP 1 DEMAND INLET BRANCH,PLANT LOOP 1 DEMAND BYPASS BRANCH,PLANT LOOP 1,Demand
     Plant Loop Connector Nodes,   22,Splitter,PLANT LOOP 1 DEMAND SPLITTER,PLANT LOOP 1 DEMAND INLET PIPE NODE,PLANT LOOP 1 DEMAND BYPASS PIPE INLET NODE,PLANT LOOP 1,Demand
   Plant Loop Connector,Mixer,PLANT LOOP 1 DEMAND MIXER,PLANT LOOP 1,Demand,22
     Plant Loop Connector Branches,1,Mixer,PLANT LOOP 1 DEMAND MIXER,PLANT LOOP 1 DEMAND BRANCH 1,PLANT LOOP 1 DEMAND OUTLET BRANCH,PLANT LOOP 1,Demand
     Plant Loop Connector Nodes,   1,Mixer,PLANT LOOP 1 DEMAND MIXER,NODE 42,PLANT LOOP 1 DEMAND OUTLET PIPE NODE,PLANT LOOP 1,Demand
     Plant Loop Connector Branches,2,Mixer,PLANT LOOP 1 DEMAND MIXER,PLANT LOOP 1 DEMAND BRANCH 2,PLANT LOOP 1 DEMAND OUTLET BRANCH,PLANT LOOP 1,Demand
     Plant Loop Connector Nodes,   2,Mixer,PLANT LOOP 1 DEMAND MIXER,NODE 46,PLANT LOOP 1 DEMAND OUTLET PIPE NODE,PLANT LOOP 1,Demand
     Plant Loop Connector Branches,3,Mixer,PLANT LOOP 1 DEMAND MIXER,PLANT LOOP 1 DEMAND BRANCH 3,PLANT LOOP 1 DEMAND OUTLET BRANCH,PLANT LOOP 1,Demand
     Plant Loop Connector Nodes,   3,Mixer,PLANT LOOP 1 DEMAND MIXER,NODE 51,PLANT LOOP 1 DEMAND OUTLET PIPE NODE,PLANT LOOP 1,Demand
     Plant Loop Connector Branches,4,Mixer,PLANT LOOP 1 DEMAND MIXER,PLANT LOOP 1 DEMAND BRANCH 4,PLANT LOOP 1 DEMAND OUTLET BRANCH,PLANT LOOP 1,Demand
     Plant Loop Connector Nodes,   4,Mixer,PLANT LOOP 1 DEMAND MIXER,NODE 56,PLANT LOOP 1 DEMAND OUTLET PIPE NODE,PLANT LOOP 1,Demand
     Plant Loop Connector Branches,5,Mixer,PLANT LOOP 1 DEMAND MIXER,PLANT LOOP 1 DEMAND BRANCH 5,PLANT LOOP 1 DEMAND OUTLET BRANCH,PLANT LOOP 1,Demand
     Plant Loop Connector Nodes,   5,Mixer,PLANT LOOP 1 DEMAND MIXER,NODE 61,PLANT LOOP 1 DEMAND OUTLET PIPE NODE,PLANT LOOP 1,Demand
     Plant Loop Connector Branches,6,Mixer,PLANT LOOP 1 DEMAND MIXER,PLANT LOOP 1 DEMAND BRANCH 6,PLANT LOOP 1 DEMAND OUTLET BRANCH,PLANT LOOP 1,Demand
     Plant Loop Connector Nodes,   6,Mixer,PLANT LOOP 1 DEMAND MIXER,NODE 66,PLANT LOOP 1 DEMAND OUTLET PIPE NODE,PLANT LOOP 1,Demand
     Plant Loop Connector Branches,7,Mixer,PLANT LOOP 1 DEMAND MIXER,PLANT LOOP 1 DEMAND BRANCH 7,PLANT LOOP 1 DEMAND OUTLET BRANCH,PLANT LOOP 1,Demand
     Plant Loop Connector Nodes,   7,Mixer,PLANT LOOP 1 DEMAND MIXER,NODE 71,PLANT LOOP 1 DEMAND OUTLET PIPE NODE,PLANT LOOP 1,Demand
     Plant Loop Connector Branches,8,Mixer,PLANT LOOP 1 DEMAND MIXER,PLANT LOOP 1 DEMAND BRANCH 8,PLANT LOOP 1 DEMAND OUTLET BRANCH,PLANT LOOP 1,Demand
     Plant Loop Connector Nodes,   8,Mixer,PLANT LOOP 1 DEMAND MIXER,NODE 76,PLANT LOOP 1 DEMAND OUTLET PIPE NODE,PLANT LOOP 1,Demand
     Plant Loop Connector Branches,9,Mixer,PLANT LOOP 1 DEMAND MIXER,PLANT LOOP 1 DEMAND BRANCH 9,PLANT LOOP 1 DEMAND OUTLET BRANCH,PLANT LOOP 1,Demand
     Plant Loop Connector Nodes,   9,Mixer,PLANT LOOP 1 DEMAND MIXER,NODE 81,PLANT LOOP 1 DEMAND OUTLET PIPE NODE,PLANT LOOP 1,Demand
     Plant Loop Connector Branches,10,Mixer,PLANT LOOP 1 DEMAND MIXER,PLANT LOOP 1 DEMAND BRANCH 10,PLANT LOOP 1 DEMAND OUTLET BRANCH,PLANT LOOP 1,Demand
     Plant Loop Connector Nodes,   10,Mixer,PLANT LOOP 1 DEMAND MIXER,NODE 86,PLANT LOOP 1 DEMAND OUTLET PIPE NODE,PLANT LOOP 1,Demand
     Plant Loop Connector Branches,11,Mixer,PLANT LOOP 1 DEMAND MIXER,PLANT LOOP 1 DEMAND BRANCH 11,PLANT LOOP 1 DEMAND OUTLET BRANCH,PLANT LOOP 1,Demand
     Plant Loop Connector Nodes,   11,Mixer,PLANT LOOP 1 DEMAND MIXER,NODE 91,PLANT LOOP 1 DEMAND OUTLET PIPE NODE,PLANT LOOP 1,Demand
     Plant Loop Connector Branches,12,Mixer,PLANT LOOP 1 DEMAND MIXER,PLANT LOOP 1 DEMAND BRANCH 12,PLANT LOOP 1 DEMAND OUTLET BRANCH,PLANT LOOP 1,Demand
     Plant Loop Connector Nodes,   12,Mixer,PLANT LOOP 1 DEMAND MIXER,NODE 96,PLANT LOOP 1 DEMAND OUTLET PIPE NODE,PLANT LOOP 1,Demand
     Plant Loop Connector Branches,13,Mixer,PLANT LOOP 1 DEMAND MIXER,PLANT LOOP 1 DEMAND BRANCH 13,PLANT LOOP 1 DEMAND OUTLET BRANCH,PLANT LOOP 1,Demand
     Plant Loop Connector Nodes,   13,Mixer,PLANT LOOP 1 DEMAND MIXER,NODE 101,PLANT LOOP 1 DEMAND OUTLET PIPE NODE,PLANT LOOP 1,Demand
     Plant Loop Connector Branches,14,Mixer,PLANT LOOP 1 DEMAND MIXER,PLANT LOOP 1 DEMAND BRANCH 14,PLANT LOOP 1 DEMAND OUTLET BRANCH,PLANT LOOP 1,Demand
     Plant Loop Connector Nodes,   14,Mixer,PLANT LOOP 1 DEMAND MIXER,NODE 106,PLANT LOOP 1 DEMAND OUTLET PIPE NODE,PLANT LOOP 1,Demand
     Plant Loop Connector Branches,15,Mixer,PLANT LOOP 1 DEMAND MIXER,PLANT LOOP 1 DEMAND BRANCH 15,PLANT LOOP 1 DEMAND OUTLET BRANCH,PLANT LOOP 1,Demand
     Plant Loop Connector Nodes,   15,Mixer,PLANT LOOP 1 DEMAND MIXER,NODE 111,PLANT LOOP 1 DEMAND OUTLET PIPE NODE,PLANT LOOP 1,Demand
     Plant Loop Connector Branches,16,Mixer,PLANT LOOP 1 DEMAND MIXER,PLANT LOOP 1 DEMAND BRANCH 16,PLANT LOOP 1 DEMAND OUTLET BRANCH,PLANT LOOP 1,Demand
     Plant Loop Connector Nodes,   16,Mixer,PLANT LOOP 1 DEMAND MIXER,NODE 116,PLANT LOOP 1 DEMAND OUTLET PIPE NODE,PLANT LOOP 1,Demand
     Plant Loop Connector Branches,17,Mixer,PLANT LOOP 1 DEMAND MIXER,PLANT LOOP 1 DEMAND BRANCH 17,PLANT LOOP 1 DEMAND OUTLET BRANCH,PLANT LOOP 1,Demand
     Plant Loop Connector Nodes,   17,Mixer,PLANT LOOP 1 DEMAND MIXER,NODE 121,PLANT LOOP 1 DEMAND OUTLET PIPE NODE,PLANT LOOP 1,Demand
     Plant Loop Connector Branches,18,Mixer,PLANT LOOP 1 DEMAND MIXER,PLANT LOOP 1 DEMAND BRANCH 18,PLANT LOOP 1 DEMAND OUTLET BRANCH,PLANT LOOP 1,Demand
     Plant Loop Connector Nodes,   18,Mixer,PLANT LOOP 1 DEMAND MIXER,NODE 126,PLANT LOOP 1 DEMAND OUTLET PIPE NODE,PLANT LOOP 1,Demand
     Plant Loop Connector Branches,19,Mixer,PLANT LOOP 1 DEMAND MIXER,PLANT LOOP 1 DEMAND BRANCH 19,PLANT LOOP 1 DEMAND OUTLET BRANCH,PLANT LOOP 1,Demand
     Plant Loop Connector Nodes,   19,Mixer,PLANT LOOP 1 DEMAND MIXER,NODE 131,PLANT LOOP 1 DEMAND OUTLET PIPE NODE,PLANT LOOP 1,Demand
     Plant Loop Connector Branches,20,Mixer,PLANT LOOP 1 DEMAND MIXER,PLANT LOOP 1 DEMAND BRANCH 20,PLANT LOOP 1 DEMAND OUTLET BRANCH,PLANT LOOP 1,Demand
     Plant Loop Connector Nodes,   20,Mixer,PLANT LOOP 1 DEMAND MIXER,NODE 136,PLANT LOOP 1 DEMAND OUTLET PIPE NODE,PLANT LOOP 1,Demand
     Plant Loop Connector Branches,21,Mixer,PLANT LOOP 1 DEMAND MIXER,PLANT LOOP 1 DEMAND BRANCH 21,PLANT LOOP 1 DEMAND OUTLET BRANCH,PLANT LOOP 1,Demand
     Plant Loop Connector Nodes,   21,Mixer,PLANT LOOP 1 DEMAND MIXER,NODE 141,PLANT LOOP 1 DEMAND OUTLET PIPE NODE,PLANT LOOP 1,Demand
     Plant Loop Connector Branches,22,Mixer,PLANT LOOP 1 DEMAND MIXER,PLANT LOOP 1 DEMAND BYPASS BRANCH,PLANT LOOP 1 DEMAND OUTLET BRANCH,PLANT LOOP 1,Demand
     Plant Loop Connector Nodes,   22,Mixer,PLANT LOOP 1 DEMAND MIXER,PLANT LOOP 1 DEMAND BYPASS PIPE OUTLET NODE,PLANT LOOP 1 DEMAND OUTLET PIPE NODE,PLANT LOOP 1,Demand
 Plant Loop,PLANT LOOP 1,Supply,NODE 31,NODE 32,PLANT LOOP 1 SUPPLY BRANCHES,PLANT LOOP 1 SUPPLY CONNECTOR LIST
   Plant Loop Connector,Splitter,PLANT LOOP 1 SUPPLY SPLITTER,PLANT LOOP 1,Supply,2
     Plant Loop Connector Branches,1,Splitter,PLANT LOOP 1 SUPPLY SPLITTER,PLANT LOOP 1 SUPPLY INLET BRANCH,PLANT LOOP 1 SUPPLY BRANCH 1,PLANT LOOP 1,Supply
     Plant Loop Connector Nodes,   1,Splitter,PLANT LOOP 1 SUPPLY SPLITTER,NODE 37,NODE 33,PLANT LOOP 1,Supply
     Plant Loop Connector Branches,2,Splitter,PLANT LOOP 1 SUPPLY SPLITTER,PLANT LOOP 1 SUPPLY INLET BRANCH,PLANT LOOP 1 SUPPLY BRANCH 2,PLANT LOOP 1,Supply
     Plant Loop Connector Nodes,   2,Splitter,PLANT LOOP 1 SUPPLY SPLITTER,NODE 37,NODE 39,PLANT LOOP 1,Supply
   Plant Loop Connector,Mixer,PLANT LOOP 1 SUPPLY MIXER,PLANT LOOP 1,Supply,2
     Plant Loop Connector Branches,1,Mixer,PLANT LOOP 1 SUPPLY MIXER,PLANT LOOP 1 SUPPLY BRANCH 1,PLANT LOOP 1 SUPPLY OUTLET BRANCH,PLANT LOOP 1,Supply
     Plant Loop Connector Nodes,   1,Mixer,PLANT LOOP 1 SUPPLY MIXER,NODE 38,NODE 41,PLANT LOOP 1,Supply
     Plant Loop Connector Branches,2,Mixer,PLANT LOOP 1 SUPPLY MIXER,PLANT LOOP 1 SUPPLY BRANCH 2,PLANT LOOP 1 SUPPLY OUTLET BRANCH,PLANT LOOP 1,Supply
     Plant Loop Connector Nodes,   2,Mixer,PLANT LOOP 1 SUPPLY MIXER,NODE 40,NODE 41,PLANT LOOP 1,Supply
 Plant Loop Supply Connection,PLANT LOOP 1,NODE 32,NODE 34
 Plant Loop Return Connection,PLANT LOOP 1,NODE 35,NODE 31
! ===============================================================
! <# Condenser Loops>,<Number of Condenser Loops>
 #Condenser Loops,0
! <Condenser Loop>,<Condenser Loop Name>,<Loop Type>,<Inlet Node Name>,<Outlet Node Name>,<Branch List>,<Connector List>
! <Condenser Loop Connector>,<Connector Type>,<Connector Name>,<Loop Name>,<Loop Type>,<Number of Inlets/Outlets>
! <Condenser Loop Connector Branches>,<Connector Node Count>,<Connector Type>,<Connector Name>,<Inlet Branch>,<Outlet Branch>,<Loop Name>,<Loop Type>
! <Condenser Loop Connector Nodes>,<Connector Node Count>,<Connector Type>,<Connector Name>,<Inlet Node>,<Outlet Node>,<Loop Name>,<Loop Type>
! <Condenser Loop Supply Connection>,<Condenser Loop Name>,<Supply Side Outlet Node Name>,<Demand Side Inlet Node Name>
! <Condenser Loop Return Connection>,<Condenser Loop Name>,<Demand Side Outlet Node Name>,<Supply Side Inlet Node Name>
! ===============================================================
! <# Controlled Zones>,<Number of Controlled Zones>
 #Controlled Zones,20
! <Controlled Zone>,<Controlled Zone Name>,<Equip List Name>,<Control List Name>,<Zone Node Name>,<Return Air Node Name>,<# Inlet Nodes>,<# Exhaust Nodes>
! <Controlled Zone Inlet>,<Inlet Node Count>,<Controlled Zone Name>,<Supply Air Inlet Node Name>,<SD Sys:Cooling/Heating [DD:Cooling] Inlet Node Name>,<DD Sys:Heating Inlet Node Name>
! <Controlled Zone Exhaust>,<Exhaust Node Count>,<Controlled Zone Name>,<Exhaust Air Node Name>
 Controlled Zone,THERMAL ZONE 16,ZONE HVAC EQUIPMENT LIST 16,,NODE 16,NODE 138,1,0
   Controlled Zone Inlet,1,THERMAL ZONE 16,NODE 137,NODE 139,N/A
 Controlled Zone,THERMAL ZONE 12,ZONE HVAC EQUIPMENT LIST 12,,NODE 12,NODE 88,1,0
   Controlled Zone Inlet,1,THERMAL ZONE 12,NODE 87,NODE 89,N/A
 Controlled Zone,THERMAL ZONE 7,ZONE HVAC EQUIPMENT LIST 7,,NODE 7,NODE 73,1,0
   Controlled Zone Inlet,1,THERMAL ZONE 7,NODE 72,NODE 74,N/A
 Controlled Zone,THERMAL ZONE 9,ZONE HVAC EQUIPMENT LIST 9,,NODE 9,NODE 103,1,0
   Controlled Zone Inlet,1,THERMAL ZONE 9,NODE 102,NODE 104,N/A
 Controlled Zone,THERMAL ZONE 8,ZONE HVAC EQUIPMENT LIST 8,,NODE 8,NODE 133,1,0
   Controlled Zone Inlet,1,THERMAL ZONE 8,NODE 132,NODE 134,N/A
 Controlled Zone,THERMAL ZONE 10,ZONE HVAC EQUIPMENT LIST 10,,NODE 10,NODE 63,1,0
   Controlled Zone Inlet,1,THERMAL ZONE 10,NODE 62,NODE 64,N/A
 Controlled Zone,THERMAL ZONE 3,ZONE HVAC EQUIPMENT LIST 3,,NODE 3,NODE 68,1,0
   Controlled Zone Inlet,1,THERMAL ZONE 3,NODE 67,NODE 69,N/A
 Controlled Zone,THERMAL ZONE 4,ZONE HVAC EQUIPMENT LIST 4,,NODE 4,NODE 58,1,0
   Controlled Zone Inlet,1,THERMAL ZONE 4,NODE 57,NODE 59,N/A
 Controlled Zone,THERMAL ZONE 15,ZONE HVAC EQUIPMENT LIST 15,,NODE 15,NODE 118,1,0
   Controlled Zone Inlet,1,THERMAL ZONE 15,NODE 117,NODE 119,N/A
 Controlled Zone,THERMAL ZONE 6,ZONE HVAC EQUIPMENT LIST 6,,NODE 6,NODE 93,1,0
   Controlled Zone Inlet,1,THERMAL ZONE 6,NODE 92,NODE 94,N/A
 Controlled Zone,THERMAL ZONE 2,ZONE HVAC EQUIPMENT LIST 2,,NODE 2,NODE 98,1,0
   Controlled Zone Inlet,1,THERMAL ZONE 2,NODE 97,NODE 99,N/A
 Controlled Zone,THERMAL ZONE 13,ZONE HVAC EQUIPMENT LIST 13,,NODE 13,NODE 43,1,0
   Controlled Zone Inlet,1,THERMAL ZONE 13,NODE 25,NODE 44,N/A
 Controlled Zone,THERMAL ZONE 1,ZONE HVAC EQUIPMENT LIST 1,,NODE 1,NODE 48,1,0
   Controlled Zone Inlet,1,THERMAL ZONE 1,NODE 47,NODE 49,N/A
 Controlled Zone,THERMAL ZONE 17,ZONE HVAC EQUIPMENT LIST 17,,NODE 17,NODE 53,1,0
   Controlled Zone Inlet,1,THERMAL ZONE 17,NODE 52,NODE 54,N/A
 Controlled Zone,THERMAL ZONE 5,ZONE HVAC EQUIPMENT LIST 5,,NODE 5,NODE 83,1,0
   Controlled Zone Inlet,1,THERMAL ZONE 5,NODE 82,NODE 84,N/A
 Controlled Zone,THERMAL ZONE 18,ZONE HVAC EQUIPMENT LIST 18,,NODE 18,NODE 113,1,0
   Controlled Zone Inlet,1,THERMAL ZONE 18,NODE 112,NODE 114,N/A
 Controlled Zone,THERMAL ZONE 19,ZONE HVAC EQUIPMENT LIST 19,,NODE 19,NODE 108,1,0
   Controlled Zone Inlet,1,THERMAL ZONE 19,NODE 107,NODE 109,N/A
 Controlled Zone,THERMAL ZONE 11,ZONE HVAC EQUIPMENT LIST 11,,NODE 11,NODE 123,1,0
   Controlled Zone Inlet,1,THERMAL ZONE 11,NODE 122,NODE 124,N/A
 Controlled Zone,THERMAL ZONE 20,ZONE HVAC EQUIPMENT LIST 20,,NODE 20,NODE 128,1,0
   Controlled Zone Inlet,1,THERMAL ZONE 20,NODE 127,NODE 129,N/A
 Controlled Zone,THERMAL ZONE 14,ZONE HVAC EQUIPMENT LIST 14,,NODE 14,NODE 78,1,0
   Controlled Zone Inlet,1,THERMAL ZONE 14,NODE 77,NODE 79,N/A
! ===============================================================
! <#Zone Equipment Lists>,<Number of Zone Equipment Lists>
 #Zone Equipment Lists,20
! <Zone Equipment List>,<Zone Equipment List Count>,<Zone Equipment List Name>,<Zone Name>,<Number of Components>
! <Zone Equipment Component>,<Component Count>,<Component Type>,<Component Name>,<Zone Name>,<Heating Priority>,<Cooling Priority>
 Zone Equipment List,1,ZONE HVAC EQUIPMENT LIST 16,THERMAL ZONE 16,1
   Zone Equipment Component,1,ZONEHVAC:AIRDISTRIBUTIONUNIT,ZONEHVAC:AIRDISTRIBUTIONUNIT {D1BEBC74-A5B0-4465-8F7F-2ED69C59D6D0},THERMAL ZONE 16,1,1
 Zone Equipment List,2,ZONE HVAC EQUIPMENT LIST 12,THERMAL ZONE 12,1
   Zone Equipment Component,1,ZONEHVAC:AIRDISTRIBUTIONUNIT,ZONEHVAC:AIRDISTRIBUTIONUNIT {DC39A30D-AC56-4A1E-BD89-289D3B68BED7},THERMAL ZONE 12,1,1
 Zone Equipment List,3,ZONE HVAC EQUIPMENT LIST 7,THERMAL ZONE 7,1
   Zone Equipment Component,1,ZONEHVAC:AIRDISTRIBUTIONUNIT,ZONEHVAC:AIRDISTRIBUTIONUNIT {4836CD68-B603-4B7A-B907-165CA24B52A9},THERMAL ZONE 7,1,1
 Zone Equipment List,4,ZONE HVAC EQUIPMENT LIST 9,THERMAL ZONE 9,1
   Zone Equipment Component,1,ZONEHVAC:AIRDISTRIBUTIONUNIT,ZONEHVAC:AIRDISTRIBUTIONUNIT {A11A79D8-42B2-4C9D-AA01-028F9E4E28D8},THERMAL ZONE 9,1,1
 Zone Equipment List,5,ZONE HVAC EQUIPMENT LIST 8,THERMAL ZONE 8,1
   Zone Equipment Component,1,ZONEHVAC:AIRDISTRIBUTIONUNIT,ZONEHVAC:AIRDISTRIBUTIONUNIT {D4F140E3-70FF-4D21-AE7F-5E7A711D35D7},THERMAL ZONE 8,1,1
 Zone Equipment List,6,ZONE HVAC EQUIPMENT LIST 10,THERMAL ZONE 10,1
   Zone Equipment Component,1,ZONEHVAC:AIRDISTRIBUTIONUNIT,ZONEHVAC:AIRDISTRIBUTIONUNIT {7539FB33-E2E2-4BAB-9FFD-A14E67F7C63E},THERMAL ZONE 10,1,1
 Zone Equipment List,7,ZONE HVAC EQUIPMENT LIST 3,THERMAL ZONE 3,1
   Zone Equipment Component,1,ZONEHVAC:AIRDISTRIBUTIONUNIT,ZONEHVAC:AIRDISTRIBUTIONUNIT {09DBA915-A3AE-4FDF-B6DA-8190E9950820},THERMAL ZONE 3,1,1
 Zone Equipment List,8,ZONE HVAC EQUIPMENT LIST 4,THERMAL ZONE 4,1
   Zone Equipment Component,1,ZONEHVAC:AIRDISTRIBUTIONUNIT,ZONEHVAC:AIRDISTRIBUTIONUNIT {5C1591F7-34A6-418B-8D50-682DE7EC102D},THERMAL ZONE 4,1,1
 Zone Equipment List,9,ZONE HVAC EQUIPMENT LIST 15,THERMAL ZONE 15,1
   Zone Equipment Component,1,ZONEHVAC:AIRDISTRIBUTIONUNIT,ZONEHVAC:AIRDISTRIBUTIONUNIT {CC2250A5-6832-4AAA-9F2F-5DFF356ABFFF},THERMAL ZONE 15,1,1
 Zone Equipment List,10,ZONE HVAC EQUIPMENT LIST 6,THERMAL ZONE 6,1
   Zone Equipment Component,1,ZONEHVAC:AIRDISTRIBUTIONUNIT,ZONEHVAC:AIRDISTRIBUTIONUNIT {F4095022-8678-42ED-8119-6505E17F8CE3},THERMAL ZONE 6,1,1
 Zone Equipment List,11,ZONE HVAC EQUIPMENT LIST 2,THERMAL ZONE 2,1
   Zone Equipment Component,1,ZONEHVAC:AIRDISTRIBUTIONUNIT,ZONEHVAC:AIRDISTRIBUTIONUNIT {D73C05D8-C4AF-4E05-8C03-836F13203EB6},THERMAL ZONE 2,1,1
 Zone Equipment List,12,ZONE HVAC EQUIPMENT LIST 13,THERMAL ZONE 13,1
   Zone Equipment Component,1,ZONEHVAC:AIRDISTRIBUTIONUNIT,ZONEHVAC:AIRDISTRIBUTIONUNIT {4E27F5DC-A631-43F5-BEB6-2EC5DCC127C2},THERMAL ZONE 13,1,1
 Zone Equipment List,13,ZONE HVAC EQUIPMENT LIST 1,THERMAL ZONE 1,1
   Zone Equipment Component,1,ZONEHVAC:AIRDISTRIBUTIONUNIT,ZONEHVAC:AIRDISTRIBUTIONUNIT {B80EEDB6-C541-414A-AF4C-E503329881EA},THERMAL ZONE 1,1,1
 Zone Equipment List,14,ZONE HVAC EQUIPMENT LIST 17,THERMAL ZONE 17,1
   Zone Equipment Component,1,ZONEHVAC:AIRDISTRIBUTIONUNIT,ZONEHVAC:AIRDISTRIBUTIONUNIT {F809EEC0-089A-496F-AE7D-F2BDA8833816},THERMAL ZONE 17,1,1
 Zone Equipment List,15,ZONE HVAC EQUIPMENT LIST 5,THERMAL ZONE 5,1
   Zone Equipment Component,1,ZONEHVAC:AIRDISTRIBUTIONUNIT,ZONEHVAC:AIRDISTRIBUTIONUNIT {FDE0955D-EAF3-4D7C-B09B-941FC818EFB9},THERMAL ZONE 5,1,1
 Zone Equipment List,16,ZONE HVAC EQUIPMENT LIST 18,THERMAL ZONE 18,1
   Zone Equipment Component,1,ZONEHVAC:AIRDISTRIBUTIONUNIT,ZONEHVAC:AIRDISTRIBUTIONUNIT {6BC305E5-BDCB-440C-9F58-D14DDD695A29},THERMAL ZONE 18,1,1
 Zone Equipment List,17,ZONE HVAC EQUIPMENT LIST 19,THERMAL ZONE 19,1
   Zone Equipment Component,1,ZONEHVAC:AIRDISTRIBUTIONUNIT,ZONEHVAC:AIRDISTRIBUTIONUNIT {B937D8F4-EA65-4153-A31C-FF9A5113A275},THERMAL ZONE 19,1,1
 Zone Equipment List,18,ZONE HVAC EQUIPMENT LIST 11,THERMAL ZONE 11,1
   Zone Equipment Component,1,ZONEHVAC:AIRDISTRIBUTIONUNIT,ZONEHVAC:AIRDISTRIBUTIONUNIT {0AD1DA2D-1BB9-4D3B-87D2-8364EB43B3B2},THERMAL ZONE 11,1,1
 Zone Equipment List,19,ZONE HVAC EQUIPMENT LIST 20,THERMAL ZONE 20,1
   Zone Equipment Component,1,ZONEHVAC:AIRDISTRIBUTIONUNIT,ZONEHVAC:AIRDISTRIBUTIONUNIT {21C89334-4412-4045-AF43-DF64E09226AC},THERMAL ZONE 20,1,1
 Zone Equipment List,20,ZONE HVAC EQUIPMENT LIST 14,THERMAL ZONE 14,1
   Zone Equipment Component,1,ZONEHVAC:AIRDISTRIBUTIONUNIT,ZONEHVAC:AIRDISTRIBUTIONUNIT {25345B51-FFBD-4397-94E1-096529C2DDEB},THERMAL ZONE 14,1,1
! ===============================================================
! <#Dual Duct Damper Connections>,<Number of Dual Duct Damper Connections>
 #Dual Duct Damper Connections,0
! <Dual Duct Damper>,<Dual Duct Damper Count>,<Dual Duct Damper Name>,<Inlet Node>,<Outlet Node>,<Inlet Node Type>,<AirLoopHVAC Name>
! ===============================================================
! <#AirLoopHVACs>,<Number of AirLoopHVACs>
 #AirLoopHVACs,1
! <AirLoopHVAC>,<Air Loop Name>,<# Return Nodes>,<# Supply Nodes>,<# Zones Cooled>,<# Zones Heated>,<Outdoor Air Used>
! <AirLoop Return Connections>,<Connection Count>,<AirLoopHVAC Name>,<Zn Eqp Return Node #>,<Zn Eqp Return Node Name>,<AirLoop Return Node #>,<Air Loop Return Node Name>
! <AirLoop Supply Connections>,<Connection Count>,<AirLoopHVAC Name>,<Zn Eqp Supply Node #>,<Zn Eqp Supply Node Name>,<AirLoop Supply Node #>,<Air Loop Supply Node Name>
! <Cooled Zone Info>,<Cooled Zone Count>,<Cooled Zone Name>,<Cooled Zone Inlet Node #>,<Cooled Zone Inlet Node Name>,<AirLoopHVAC Name>
! <Heated Zone Info>,<Heated Zone Count>,<Heated Zone Name>,<Heated Zone Inlet Node #>,<Heated Zone Inlet Node Name>,<AirLoopHVAC Name>
! <Outdoor Air Connections>,<OA Inlet Node #>,<OA Return Air Inlet Node Name>,<OA Outlet Node #>,<OA Mixed Air Outlet Node Name>,<AirLoopHVAC Name>
! <AirLoopHVAC Connector>,<Connector Type>,<Connector Name>,<Loop Name>,<Loop Type>,<Number of Inlets/Outlets>
! <AirLoopHVAC Connector Branches>,<Connector Node Count>,<Connector Type>,<Connector Name>,<Inlet Branch>,<Outlet Branch>,<Loop Name>,<Loop Type>
! <AirLoopHVAC Connector Nodes>,<Connector Node Count>,<Connector Type>,<Connector Name>,<Inlet Node>,<Outlet Node>,<Loop Name>,<Loop Type>
 AirLoopHVAC,AIR LOOP HVAC 1,1,1,20,0,Yes
   AirLoop Return Connections,1,AIR LOOP HVAC 1,124,NODE 24,21,NODE 21
   AirLoop Supply Connections,1,AIR LOOP HVAC 1,123,NODE 23,25,NODE 22
   Cooled Zone Info,1,THERMAL ZONE 13,12,NODE 25,AIR LOOP HVAC 1
   Cooled Zone Info,2,THERMAL ZONE 1,13,NODE 47,AIR LOOP HVAC 1
   Cooled Zone Info,3,THERMAL ZONE 17,14,NODE 52,AIR LOOP HVAC 1
   Cooled Zone Info,4,THERMAL ZONE 4,8,NODE 57,AIR LOOP HVAC 1
   Cooled Zone Info,5,THERMAL ZONE 10,6,NODE 62,AIR LOOP HVAC 1
   Cooled Zone Info,6,THERMAL ZONE 3,7,NODE 67,AIR LOOP HVAC 1
   Cooled Zone Info,7,THERMAL ZONE 7,3,NODE 72,AIR LOOP HVAC 1
   Cooled Zone Info,8,THERMAL ZONE 14,20,NODE 77,AIR LOOP HVAC 1
   Cooled Zone Info,9,THERMAL ZONE 5,15,NODE 82,AIR LOOP HVAC 1
   Cooled Zone Info,10,THERMAL ZONE 12,2,NODE 87,AIR LOOP HVAC 1
   Cooled Zone Info,11,THERMAL ZONE 6,10,NODE 92,AIR LOOP HVAC 1
   Cooled Zone Info,12,THERMAL ZONE 2,11,NODE 97,AIR LOOP HVAC 1
   Cooled Zone Info,13,THERMAL ZONE 9,4,NODE 102,AIR LOOP HVAC 1
   Cooled Zone Info,14,THERMAL ZONE 19,17,NODE 107,AIR LOOP HVAC 1
   Cooled Zone Info,15,THERMAL ZONE 18,16,NODE 112,AIR LOOP HVAC 1
   Cooled Zone Info,16,THERMAL ZONE 15,9,NODE 117,AIR LOOP HVAC 1
   Cooled Zone Info,17,THERMAL ZONE 11,18,NODE 122,AIR LOOP HVAC 1
   Cooled Zone Info,18,THERMAL ZONE 20,19,NODE 127,AIR LOOP HVAC 1
   Cooled Zone Info,19,THERMAL ZONE 8,5,NODE 132,AIR LOOP HVAC 1
   Cooled Zone Info,20,THERMAL ZONE 16,1,NODE 137,AIR LOOP HVAC 1
   Outdoor Air Connections,21,NODE 21,22,NODE 28,AIR LOOP HVAC 1
! ===============================================================
! <#Parent Node Connections>,<Number of Parent Node Connections>
 #Parent Node Connections,115
! <Parent Node Connection>,<Node Name>,<Node ObjectType>,<Node ObjectName>,<Node ConnectionType>,<Node FluidStream>
 Parent Node Connection,NODE 21,BRANCH,BRANCH {38CE46AC-348E-4527-B4B4-65CE2F1DD46D},Inlet,1
 Parent Node Connection,NODE 28,BRANCH,BRANCH {38CE46AC-348E-4527-B4B4-65CE2F1DD46D},Internal,1
 Parent Node Connection,NODE 29,BRANCH,BRANCH {38CE46AC-348E-4527-B4B4-65CE2F1DD46D},Internal,1
 Parent Node Connection,NODE 30,BRANCH,BRANCH {38CE46AC-348E-4527-B4B4-65CE2F1DD46D},Internal,1
 Parent Node Connection,NODE 22,BRANCH,BRANCH {38CE46AC-348E-4527-B4B4-65CE2F1DD46D},Outlet,1
 Parent Node Connection,NODE 31,BRANCH,PLANT LOOP 1 SUPPLY INLET BRANCH,Inlet,1
 Parent Node Connection,NODE 37,BRANCH,PLANT LOOP 1 SUPPLY INLET BRANCH,Outlet,1
 Parent Node Connection,NODE 33,BRANCH,PLANT LOOP 1 SUPPLY BRANCH 1,Inlet,1
 Parent Node Connection,NODE 38,BRANCH,PLANT LOOP 1 SUPPLY BRANCH 1,Outlet,1
 Parent Node Connection,NODE 39,BRANCH,PLANT LOOP 1 SUPPLY BRANCH 2,Inlet,1
 Parent Node Connection,NODE 40,BRANCH,PLANT LOOP 1 SUPPLY BRANCH 2,Outlet,1
 Parent Node Connection,NODE 41,BRANCH,PLANT LOOP 1 SUPPLY OUTLET BRANCH,Inlet,1
 Parent Node Connection,NODE 32,BRANCH,PLANT LOOP 1 SUPPLY OUTLET BRANCH,Outlet,1
 Parent Node Connection,NODE 34,BRANCH,PLANT LOOP 1 DEMAND INLET BRANCH,Inlet,1
 Parent Node Connection,PLANT LOOP 1 DEMAND INLET PIPE NODE,BRANCH,PLANT LOOP 1 DEMAND INLET BRANCH,Outlet,1
 Parent Node Connection,NODE 36,BRANCH,PLANT LOOP 1 DEMAND BRANCH 1,Inlet,1
 Parent Node Connection,NODE 42,BRANCH,PLANT LOOP 1 DEMAND BRANCH 1,Outlet,1
 Parent Node Connection,NODE 45,BRANCH,PLANT LOOP 1 DEMAND BRANCH 2,Inlet,1
 Parent Node Connection,NODE 46,BRANCH,PLANT LOOP 1 DEMAND BRANCH 2,Outlet,1
 Parent Node Connection,NODE 50,BRANCH,PLANT LOOP 1 DEMAND BRANCH 3,Inlet,1
 Parent Node Connection,NODE 51,BRANCH,PLANT LOOP 1 DEMAND BRANCH 3,Outlet,1
 Parent Node Connection,NODE 55,BRANCH,PLANT LOOP 1 DEMAND BRANCH 4,Inlet,1
 Parent Node Connection,NODE 56,BRANCH,PLANT LOOP 1 DEMAND BRANCH 4,Outlet,1
 Parent Node Connection,NODE 60,BRANCH,PLANT LOOP 1 DEMAND BRANCH 5,Inlet,1
 Parent Node Connection,NODE 61,BRANCH,PLANT LOOP 1 DEMAND BRANCH 5,Outlet,1
 Parent Node Connection,NODE 65,BRANCH,PLANT LOOP 1 DEMAND BRANCH 6,Inlet,1
 Parent Node Connection,NODE 66,BRANCH,PLANT LOOP 1 DEMAND BRANCH 6,Outlet,1
 Parent Node Connection,NODE 70,BRANCH,PLANT LOOP 1 DEMAND BRANCH 7,Inlet,1
 Parent Node Connection,NODE 71,BRANCH,PLANT LOOP 1 DEMAND BRANCH 7,Outlet,1
 Parent Node Connection,NODE 75,BRANCH,PLANT LOOP 1 DEMAND BRANCH 8,Inlet,1
 Parent Node Connection,NODE 76,BRANCH,PLANT LOOP 1 DEMAND BRANCH 8,Outlet,1
 Parent Node Connection,NODE 80,BRANCH,PLANT LOOP 1 DEMAND BRANCH 9,Inlet,1
 Parent Node Connection,NODE 81,BRANCH,PLANT LOOP 1 DEMAND BRANCH 9,Outlet,1
 Parent Node Connection,NODE 85,BRANCH,PLANT LOOP 1 DEMAND BRANCH 10,Inlet,1
 Parent Node Connection,NODE 86,BRANCH,PLANT LOOP 1 DEMAND BRANCH 10,Outlet,1
 Parent Node Connection,NODE 90,BRANCH,PLANT LOOP 1 DEMAND BRANCH 11,Inlet,1
 Parent Node Connection,NODE 91,BRANCH,PLANT LOOP 1 DEMAND BRANCH 11,Outlet,1
 Parent Node Connection,NODE 95,BRANCH,PLANT LOOP 1 DEMAND BRANCH 12,Inlet,1
 Parent Node Connection,NODE 96,BRANCH,PLANT LOOP 1 DEMAND BRANCH 12,Outlet,1
 Parent Node Connection,NODE 100,BRANCH,PLANT LOOP 1 DEMAND BRANCH 13,Inlet,1
 Parent Node Connection,NODE 101,BRANCH,PLANT LOOP 1 DEMAND BRANCH 13,Outlet,1
 Parent Node Connection,NODE 105,BRANCH,PLANT LOOP 1 DEMAND BRANCH 14,Inlet,1
 Parent Node Connection,NODE 106,BRANCH,PLANT LOOP 1 DEMAND BRANCH 14,Outlet,1
 Parent Node Connection,NODE 110,BRANCH,PLANT LOOP 1 DEMAND BRANCH 15,Inlet,1
 Parent Node Connection,NODE 111,BRANCH,PLANT LOOP 1 DEMAND BRANCH 15,Outlet,1
 Parent Node Connection,NODE 115,BRANCH,PLANT LOOP 1 DEMAND BRANCH 16,Inlet,1
 Parent Node Connection,NODE 116,BRANCH,PLANT LOOP 1 DEMAND BRANCH 16,Outlet,1
 Parent Node Connection,NODE 120,BRANCH,PLANT LOOP 1 DEMAND BRANCH 17,Inlet,1
 Parent Node Connection,NODE 121,BRANCH,PLANT LOOP 1 DEMAND BRANCH 17,Outlet,1
 Parent Node Connection,NODE 125,BRANCH,PLANT LOOP 1 DEMAND BRANCH 18,Inlet,1
 Parent Node Connection,NODE 126,BRANCH,PLANT LOOP 1 DEMAND BRANCH 18,Outlet,1
 Parent Node Connection,NODE 130,BRANCH,PLANT LOOP 1 DEMAND BRANCH 19,Inlet,1
 Parent Node Connection,NODE 131,BRANCH,PLANT LOOP 1 DEMAND BRANCH 19,Outlet,1
 Parent Node Connection,NODE 135,BRANCH,PLANT LOOP 1 DEMAND BRANCH 20,Inlet,1
 Parent Node Connection,NODE 136,BRANCH,PLANT LOOP 1 DEMAND BRANCH 20,Outlet,1
 Parent Node Connection,NODE 140,BRANCH,PLANT LOOP 1 DEMAND BRANCH 21,Inlet,1
 Parent Node Connection,NODE 141,BRANCH,PLANT LOOP 1 DEMAND BRANCH 21,Outlet,1
 Parent Node Connection,PLANT LOOP 1 DEMAND BYPASS PIPE INLET NODE,BRANCH,PLANT LOOP 1 DEMAND BYPASS BRANCH,Inlet,1
 Parent Node Connection,PLANT LOOP 1 DEMAND BYPASS PIPE OUTLET NODE,BRANCH,PLANT LOOP 1 DEMAND BYPASS BRANCH,Outlet,1
 Parent Node Connection,PLANT LOOP 1 DEMAND OUTLET PIPE NODE,BRANCH,PLANT LOOP 1 DEMAND OUTLET BRANCH,Inlet,1
 Parent Node Connection,NODE 35,BRANCH,PLANT LOOP 1 DEMAND OUTLET BRANCH,Outlet,1
 Parent Node Connection,NODE 31,PLANTLOOP,PLANT LOOP 1,Inlet,1
 Parent Node Connection,NODE 32,PLANTLOOP,PLANT LOOP 1,Outlet,1
 Parent Node Connection,NODE 34,PLANTLOOP,PLANT LOOP 1,Inlet,1
 Parent Node Connection,NODE 35,PLANTLOOP,PLANT LOOP 1,Outlet,1
 Parent Node Connection,NODE 32,PLANTLOOP,PLANT LOOP 1,Sensor,1
 Parent Node Connection,NODE 23,AIRLOOPHVAC:SUPPLYPATH,AIRLOOPHVAC:SUPPLYPATH {AF562493-E0F1-414E-B24A-55FD940372AC},Inlet,1
 Parent Node Connection,NODE 24,AIRLOOPHVAC:RETURNPATH,AIRLOOPHVAC:RETURNPATH {50209E45-34F0-48C6-9FC6-807E7305CF15},Outlet,1
 Parent Node Connection,NODE 25,ZONEHVAC:AIRDISTRIBUTIONUNIT,ZONEHVAC:AIRDISTRIBUTIONUNIT {4E27F5DC-A631-43F5-BEB6-2EC5DCC127C2},Outlet,1
 Parent Node Connection,NODE 47,ZONEHVAC:AIRDISTRIBUTIONUNIT,ZONEHVAC:AIRDISTRIBUTIONUNIT {B80EEDB6-C541-414A-AF4C-E503329881EA},Outlet,1
 Parent Node Connection,NODE 52,ZONEHVAC:AIRDISTRIBUTIONUNIT,ZONEHVAC:AIRDISTRIBUTIONUNIT {F809EEC0-089A-496F-AE7D-F2BDA8833816},Outlet,1
 Parent Node Connection,NODE 57,ZONEHVAC:AIRDISTRIBUTIONUNIT,ZONEHVAC:AIRDISTRIBUTIONUNIT {5C1591F7-34A6-418B-8D50-682DE7EC102D},Outlet,1
 Parent Node Connection,NODE 62,ZONEHVAC:AIRDISTRIBUTIONUNIT,ZONEHVAC:AIRDISTRIBUTIONUNIT {7539FB33-E2E2-4BAB-9FFD-A14E67F7C63E},Outlet,1
 Parent Node Connection,NODE 67,ZONEHVAC:AIRDISTRIBUTIONUNIT,ZONEHVAC:AIRDISTRIBUTIONUNIT {09DBA915-A3AE-4FDF-B6DA-8190E9950820},Outlet,1
 Parent Node Connection,NODE 72,ZONEHVAC:AIRDISTRIBUTIONUNIT,ZONEHVAC:AIRDISTRIBUTIONUNIT {4836CD68-B603-4B7A-B907-165CA24B52A9},Outlet,1
 Parent Node Connection,NODE 77,ZONEHVAC:AIRDISTRIBUTIONUNIT,ZONEHVAC:AIRDISTRIBUTIONUNIT {25345B51-FFBD-4397-94E1-096529C2DDEB},Outlet,1
 Parent Node Connection,NODE 82,ZONEHVAC:AIRDISTRIBUTIONUNIT,ZONEHVAC:AIRDISTRIBUTIONUNIT {FDE0955D-EAF3-4D7C-B09B-941FC818EFB9},Outlet,1
 Parent Node Connection,NODE 87,ZONEHVAC:AIRDISTRIBUTIONUNIT,ZONEHVAC:AIRDISTRIBUTIONUNIT {DC39A30D-AC56-4A1E-BD89-289D3B68BED7},Outlet,1
 Parent Node Connection,NODE 92,ZONEHVAC:AIRDISTRIBUTIONUNIT,ZONEHVAC:AIRDISTRIBUTIONUNIT {F4095022-8678-42ED-8119-6505E17F8CE3},Outlet,1
 Parent Node Connection,NODE 97,ZONEHVAC:AIRDISTRIBUTIONUNIT,ZONEHVAC:AIRDISTRIBUTIONUNIT {D73C05D8-C4AF-4E05-8C03-836F13203EB6},Outlet,1
 Parent Node Connection,NODE 102,ZONEHVAC:AIRDISTRIBUTIONUNIT,ZONEHVAC:AIRDISTRIBUTIONUNIT {A11A79D8-42B2-4C9D-AA01-028F9E4E28D8},Outlet,1
 Parent Node Connection,NODE 107,ZONEHVAC:AIRDISTRIBUTIONUNIT,ZONEHVAC:AIRDISTRIBUTIONUNIT {B937D8F4-EA65-4153-A31C-FF9A5113A275},Outlet,1
 Parent Node Connection,NODE 112,ZONEHVAC:AIRDISTRIBUTIONUNIT,ZONEHVAC:AIRDISTRIBUTIONUNIT {6BC305E5-BDCB-440C-9F58-D14DDD695A29},Outlet,1
 Parent Node Connection,NODE 117,ZONEHVAC:AIRDISTRIBUTIONUNIT,ZONEHVAC:AIRDISTRIBUTIONUNIT {CC2250A5-6832-4AAA-9F2F-5DFF356ABFFF},Outlet,1
 Parent Node Connection,NODE 122,ZONEHVAC:AIRDISTRIBUTIONUNIT,ZONEHVAC:AIRDISTRIBUTIONUNIT {0AD1DA2D-1BB9-4D3B-87D2-8364EB43B3B2},Outlet,1
 Parent Node Connection,NODE 127,ZONEHVAC:AIRDISTRIBUTIONUNIT,ZONEHVAC:AIRDISTRIBUTIONUNIT {21C89334-4412-4045-AF43-DF64E09226AC},Outlet,1
 Parent Node Connection,NODE 132,ZONEHVAC:AIRDISTRIBUTIONUNIT,ZONEHVAC:AIRDISTRIBUTIONUNIT {D4F140E3-70FF-4D21-AE7F-5E7A711D35D7},Outlet,1
 Parent Node Connection,NODE 137,ZONEHVAC:AIRDISTRIBUTIONUNIT,ZONEHVAC:AIRDISTRIBUTIONUNIT {D1BEBC74-A5B0-4465-8F7F-2ED69C59D6D0},Outlet,1
 Parent Node Connection,NODE 25,AIRTERMINAL:SINGLEDUCT:VAV:REHEAT,AIR TERMINAL SINGLE DUCT VAV REHEAT 2,Outlet,1
 Parent Node Connection,NODE 47,AIRTERMINAL:SINGLEDUCT:VAV:REHEAT,AIR TERMINAL SINGLE DUCT VAV REHEAT 3,Outlet,1
 Parent Node Connection,NODE 52,AIRTERMINAL:SINGLEDUCT:VAV:REHEAT,AIR TERMINAL SINGLE DUCT VAV REHEAT 4,Outlet,1
 Parent Node Connection,NODE 57,AIRTERMINAL:SINGLEDUCT:VAV:REHEAT,AIR TERMINAL SINGLE DUCT VAV REHEAT 5,Outlet,1
 Parent Node Connection,NODE 62,AIRTERMINAL:SINGLEDUCT:VAV:REHEAT,AIR TERMINAL SINGLE DUCT VAV REHEAT 6,Outlet,1
 Parent Node Connection,NODE 67,AIRTERMINAL:SINGLEDUCT:VAV:REHEAT,AIR TERMINAL SINGLE DUCT VAV REHEAT 7,Outlet,1
 Parent Node Connection,NODE 72,AIRTERMINAL:SINGLEDUCT:VAV:REHEAT,AIR TERMINAL SINGLE DUCT VAV REHEAT 8,Outlet,1
 Parent Node Connection,NODE 77,AIRTERMINAL:SINGLEDUCT:VAV:REHEAT,AIR TERMINAL SINGLE DUCT VAV REHEAT 9,Outlet,1
 Parent Node Connection,NODE 82,AIRTERMINAL:SINGLEDUCT:VAV:REHEAT,AIR TERMINAL SINGLE DUCT VAV REHEAT 10,Outlet,1
 Parent Node Connection,NODE 87,AIRTERMINAL:SINGLEDUCT:VAV:REHEAT,AIR TERMINAL SINGLE DUCT VAV REHEAT 11,Outlet,1
 Parent Node Connection,NODE 92,AIRTERMINAL:SINGLEDUCT:VAV:REHEAT,AIR TERMINAL SINGLE DUCT VAV REHEAT 12,Outlet,1
 Parent Node Connection,NODE 97,AIRTERMINAL:SINGLEDUCT:VAV:REHEAT,AIR TERMINAL SINGLE DUCT VAV REHEAT 13,Outlet,1
 Parent Node Connection,NODE 102,AIRTERMINAL:SINGLEDUCT:VAV:REHEAT,AIR TERMINAL SINGLE DUCT VAV REHEAT 14,Outlet,1
 Parent Node Connection,NODE 107,AIRTERMINAL:SINGLEDUCT:VAV:REHEAT,AIR TERMINAL SINGLE DUCT VAV REHEAT 15,Outlet,1
 Parent Node Connection,NODE 112,AIRTERMINAL:SINGLEDUCT:VAV:REHEAT,AIR TERMINAL SINGLE DUCT VAV REHEAT 16,Outlet,1
 Parent Node Connection,NODE 117,AIRTERMINAL:SINGLEDUCT:VAV:REHEAT,AIR TERMINAL SINGLE DUCT VAV REHEAT 17,Outlet,1
 Parent Node Connection,NODE 122,AIRTERMINAL:SINGLEDUCT:VAV:REHEAT,AIR TERMINAL SINGLE DUCT VAV REHEAT 18,Outlet,1
 Parent Node Connection,NODE 127,AIRTERMINAL:SINGLEDUCT:VAV:REHEAT,AIR TERMINAL SINGLE DUCT VAV REHEAT 19,Outlet,1
 Parent Node Connection,NODE 132,AIRTERMINAL:SINGLEDUCT:VAV:REHEAT,AIR TERMINAL SINGLE DUCT VAV REHEAT 20,Outlet,1
 Parent Node Connection,NODE 137,AIRTERMINAL:SINGLEDUCT:VAV:REHEAT,AIR TERMINAL SINGLE DUCT VAV REHEAT 21,Outlet,1
 Parent Node Connection,NODE 21,AIRLOOPHVAC,AIR LOOP HVAC 1,Inlet,1
 Parent Node Connection,NODE 24,AIRLOOPHVAC,AIR LOOP HVAC 1,Outlet,1
 Parent Node Connection,NODE 23,AIRLOOPHVAC,AIR LOOP HVAC 1,Inlet,1
 Parent Node Connection,NODE 22,AIRLOOPHVAC,AIR LOOP HVAC 1,Outlet,1
 Parent Node Connection,NODE 28,COILSYSTEM:COOLING:DX,COIL COOLING DX TWO SPEED 1 COILSYSTEM,Inlet,1
 Parent Node Connection,NODE 29,COILSYSTEM:COOLING:DX,COIL COOLING DX TWO SPEED 1 COILSYSTEM,Outlet,1
 Parent Node Connection,NODE 29,COILSYSTEM:COOLING:DX,COIL COOLING DX TWO SPEED 1 COILSYSTEM,Sensor,1
! ===============================================================
! <#Non-Parent Node Connections>,<Number of Non-Parent Node Connections>
 #Non-Parent Node Connections,318
! <Non-Parent Node Connection>,<Node Name>,<Node ObjectType>,<Node ObjectName>,<Node ConnectionType>,<Node FluidStream>
 Non-Parent Node Connection,NODE 26,OUTDOORAIR:NODELIST,OutdoorAir:NodeList,OutdoorAir,1
 Non-Parent Node Connection,NODE 22,SETPOINTMANAGER:SCHEDULED,SETPOINT MANAGER SCHEDULED 1,Setpoint,1
 Non-Parent Node Connection,NODE 32,SETPOINTMANAGER:SCHEDULED,SETPOINT MANAGER SCHEDULED 2,Setpoint,1
 Non-Parent Node Connection,NODE 22,SETPOINTMANAGER:MIXEDAIR,SETPOINT MANAGER MIXED AIR 3,Sensor,1
 Non-Parent Node Connection,NODE 30,SETPOINTMANAGER:MIXEDAIR,SETPOINT MANAGER MIXED AIR 3,Sensor,1
 Non-Parent Node Connection,NODE 28,SETPOINTMANAGER:MIXEDAIR,SETPOINT MANAGER MIXED AIR 3,Setpoint,1
 Non-Parent Node Connection,NODE 22,SETPOINTMANAGER:MIXEDAIR,SETPOINT MANAGER MIXED AIR 2,Sensor,1
 Non-Parent Node Connection,NODE 30,SETPOINTMANAGER:MIXEDAIR,SETPOINT MANAGER MIXED AIR 2,Sensor,1
 Non-Parent Node Connection,NODE 29,SETPOINTMANAGER:MIXEDAIR,SETPOINT MANAGER MIXED AIR 2,Setpoint,1
 Non-Parent Node Connection,NODE 22,SETPOINTMANAGER:MIXEDAIR,SETPOINT MANAGER MIXED AIR 1,Sensor,1
 Non-Parent Node Connection,NODE 30,SETPOINTMANAGER:MIXEDAIR,SETPOINT MANAGER MIXED AIR 1,Sensor,1
 Non-Parent Node Connection,NODE 30,SETPOINTMANAGER:MIXEDAIR,SETPOINT MANAGER MIXED AIR 1,Setpoint,1
 Non-Parent Node Connection,PLANT LOOP 1 DEMAND INLET PIPE NODE,CONNECTOR:SPLITTER,PLANT LOOP 1 DEMAND SPLITTER,Inlet,1
 Non-Parent Node Connection,NODE 36,CONNECTOR:SPLITTER,PLANT LOOP 1 DEMAND SPLITTER,Outlet,1
 Non-Parent Node Connection,NODE 45,CONNECTOR:SPLITTER,PLANT LOOP 1 DEMAND SPLITTER,Outlet,1
 Non-Parent Node Connection,NODE 50,CONNECTOR:SPLITTER,PLANT LOOP 1 DEMAND SPLITTER,Outlet,1
 Non-Parent Node Connection,NODE 55,CONNECTOR:SPLITTER,PLANT LOOP 1 DEMAND SPLITTER,Outlet,1
 Non-Parent Node Connection,NODE 60,CONNECTOR:SPLITTER,PLANT LOOP 1 DEMAND SPLITTER,Outlet,1
 Non-Parent Node Connection,NODE 65,CONNECTOR:SPLITTER,PLANT LOOP 1 DEMAND SPLITTER,Outlet,1
 Non-Parent Node Connection,NODE 70,CONNECTOR:SPLITTER,PLANT LOOP 1 DEMAND SPLITTER,Outlet,1
 Non-Parent Node Connection,NODE 75,CONNECTOR:SPLITTER,PLANT LOOP 1 DEMAND SPLITTER,Outlet,1
 Non-Parent Node Connection,NODE 80,CONNECTOR:SPLITTER,PLANT LOOP 1 DEMAND SPLITTER,Outlet,1
 Non-Parent Node Connection,NODE 85,CONNECTOR:SPLITTER,PLANT LOOP 1 DEMAND SPLITTER,Outlet,1
 Non-Parent Node Connection,NODE 90,CONNECTOR:SPLITTER,PLANT LOOP 1 DEMAND SPLITTER,Outlet,1
 Non-Parent Node Connection,NODE 95,CONNECTOR:SPLITTER,PLANT LOOP 1 DEMAND SPLITTER,Outlet,1
 Non-Parent Node Connection,NODE 100,CONNECTOR:SPLITTER,PLANT LOOP 1 DEMAND SPLITTER,Outlet,1
 Non-Parent Node Connection,NODE 105,CONNECTOR:SPLITTER,PLANT LOOP 1 DEMAND SPLITTER,Outlet,1
 Non-Parent Node Connection,NODE 110,CONNECTOR:SPLITTER,PLANT LOOP 1 DEMAND SPLITTER,Outlet,1
 Non-Parent Node Connection,NODE 115,CONNECTOR:SPLITTER,PLANT LOOP 1 DEMAND SPLITTER,Outlet,1
 Non-Parent Node Connection,NODE 120,CONNECTOR:SPLITTER,PLANT LOOP 1 DEMAND SPLITTER,Outlet,1
 Non-Parent Node Connection,NODE 125,CONNECTOR:SPLITTER,PLANT LOOP 1 DEMAND SPLITTER,Outlet,1
 Non-Parent Node Connection,NODE 130,CONNECTOR:SPLITTER,PLANT LOOP 1 DEMAND SPLITTER,Outlet,1
 Non-Parent Node Connection,NODE 135,CONNECTOR:SPLITTER,PLANT LOOP 1 DEMAND SPLITTER,Outlet,1
 Non-Parent Node Connection,NODE 140,CONNECTOR:SPLITTER,PLANT LOOP 1 DEMAND SPLITTER,Outlet,1
 Non-Parent Node Connection,PLANT LOOP 1 DEMAND BYPASS PIPE INLET NODE,CONNECTOR:SPLITTER,PLANT LOOP 1 DEMAND SPLITTER,Outlet,1
 Non-Parent Node Connection,PLANT LOOP 1 DEMAND OUTLET PIPE NODE,CONNECTOR:MIXER,PLANT LOOP 1 DEMAND MIXER,Outlet,1
 Non-Parent Node Connection,NODE 42,CONNECTOR:MIXER,PLANT LOOP 1 DEMAND MIXER,Inlet,1
 Non-Parent Node Connection,NODE 46,CONNECTOR:MIXER,PLANT LOOP 1 DEMAND MIXER,Inlet,1
 Non-Parent Node Connection,NODE 51,CONNECTOR:MIXER,PLANT LOOP 1 DEMAND MIXER,Inlet,1
 Non-Parent Node Connection,NODE 56,CONNECTOR:MIXER,PLANT LOOP 1 DEMAND MIXER,Inlet,1
 Non-Parent Node Connection,NODE 61,CONNECTOR:MIXER,PLANT LOOP 1 DEMAND MIXER,Inlet,1
 Non-Parent Node Connection,NODE 66,CONNECTOR:MIXER,PLANT LOOP 1 DEMAND MIXER,Inlet,1
 Non-Parent Node Connection,NODE 71,CONNECTOR:MIXER,PLANT LOOP 1 DEMAND MIXER,Inlet,1
 Non-Parent Node Connection,NODE 76,CONNECTOR:MIXER,PLANT LOOP 1 DEMAND MIXER,Inlet,1
 Non-Parent Node Connection,NODE 81,CONNECTOR:MIXER,PLANT LOOP 1 DEMAND MIXER,Inlet,1
 Non-Parent Node Connection,NODE 86,CONNECTOR:MIXER,PLANT LOOP 1 DEMAND MIXER,Inlet,1
 Non-Parent Node Connection,NODE 91,CONNECTOR:MIXER,PLANT LOOP 1 DEMAND MIXER,Inlet,1
 Non-Parent Node Connection,NODE 96,CONNECTOR:MIXER,PLANT LOOP 1 DEMAND MIXER,Inlet,1
 Non-Parent Node Connection,NODE 101,CONNECTOR:MIXER,PLANT LOOP 1 DEMAND MIXER,Inlet,1
 Non-Parent Node Connection,NODE 106,CONNECTOR:MIXER,PLANT LOOP 1 DEMAND MIXER,Inlet,1
 Non-Parent Node Connection,NODE 111,CONNECTOR:MIXER,PLANT LOOP 1 DEMAND MIXER,Inlet,1
 Non-Parent Node Connection,NODE 116,CONNECTOR:MIXER,PLANT LOOP 1 DEMAND MIXER,Inlet,1
 Non-Parent Node Connection,NODE 121,CONNECTOR:MIXER,PLANT LOOP 1 DEMAND MIXER,Inlet,1
 Non-Parent Node Connection,NODE 126,CONNECTOR:MIXER,PLANT LOOP 1 DEMAND MIXER,Inlet,1
 Non-Parent Node Connection,NODE 131,CONNECTOR:MIXER,PLANT LOOP 1 DEMAND MIXER,Inlet,1
 Non-Parent Node Connection,NODE 136,CONNECTOR:MIXER,PLANT LOOP 1 DEMAND MIXER,Inlet,1
 Non-Parent Node Connection,NODE 141,CONNECTOR:MIXER,PLANT LOOP 1 DEMAND MIXER,Inlet,1
 Non-Parent Node Connection,PLANT LOOP 1 DEMAND BYPASS PIPE OUTLET NODE,CONNECTOR:MIXER,PLANT LOOP 1 DEMAND MIXER,Inlet,1
 Non-Parent Node Connection,NODE 37,CONNECTOR:SPLITTER,PLANT LOOP 1 SUPPLY SPLITTER,Inlet,1
 Non-Parent Node Connection,NODE 33,CONNECTOR:SPLITTER,PLANT LOOP 1 SUPPLY SPLITTER,Outlet,1
 Non-Parent Node Connection,NODE 39,CONNECTOR:SPLITTER,PLANT LOOP 1 SUPPLY SPLITTER,Outlet,1
 Non-Parent Node Connection,NODE 41,CONNECTOR:MIXER,PLANT LOOP 1 SUPPLY MIXER,Outlet,1
 Non-Parent Node Connection,NODE 38,CONNECTOR:MIXER,PLANT LOOP 1 SUPPLY MIXER,Inlet,1
 Non-Parent Node Connection,NODE 40,CONNECTOR:MIXER,PLANT LOOP 1 SUPPLY MIXER,Inlet,1
 Non-Parent Node Connection,NODE 16,ZONEHVAC:EQUIPMENTCONNECTIONS,THERMAL ZONE 16,ZoneNode,1
 Non-Parent Node Connection,NODE 138,ZONEHVAC:EQUIPMENTCONNECTIONS,THERMAL ZONE 16,ZoneReturn,1
 Non-Parent Node Connection,NODE 137,ZONEHVAC:EQUIPMENTCONNECTIONS,THERMAL ZONE 16,ZoneInlet,1
 Non-Parent Node Connection,NODE 12,ZONEHVAC:EQUIPMENTCONNECTIONS,THERMAL ZONE 12,ZoneNode,1
 Non-Parent Node Connection,NODE 88,ZONEHVAC:EQUIPMENTCONNECTIONS,THERMAL ZONE 12,ZoneReturn,1
 Non-Parent Node Connection,NODE 87,ZONEHVAC:EQUIPMENTCONNECTIONS,THERMAL ZONE 12,ZoneInlet,1
 Non-Parent Node Connection,NODE 7,ZONEHVAC:EQUIPMENTCONNECTIONS,THERMAL ZONE 7,ZoneNode,1
 Non-Parent Node Connection,NODE 73,ZONEHVAC:EQUIPMENTCONNECTIONS,THERMAL ZONE 7,ZoneReturn,1
 Non-Parent Node Connection,NODE 72,ZONEHVAC:EQUIPMENTCONNECTIONS,THERMAL ZONE 7,ZoneInlet,1
 Non-Parent Node Connection,NODE 9,ZONEHVAC:EQUIPMENTCONNECTIONS,THERMAL ZONE 9,ZoneNode,1
 Non-Parent Node Connection,NODE 103,ZONEHVAC:EQUIPMENTCONNECTIONS,THERMAL ZONE 9,ZoneReturn,1
 Non-Parent Node Connection,NODE 102,ZONEHVAC:EQUIPMENTCONNECTIONS,THERMAL ZONE 9,ZoneInlet,1
 Non-Parent Node Connection,NODE 8,ZONEHVAC:EQUIPMENTCONNECTIONS,THERMAL ZONE 8,ZoneNode,1
 Non-Parent Node Connection,NODE 133,ZONEHVAC:EQUIPMENTCONNECTIONS,THERMAL ZONE 8,ZoneReturn,1
 Non-Parent Node Connection,NODE 132,ZONEHVAC:EQUIPMENTCONNECTIONS,THERMAL ZONE 8,ZoneInlet,1
 Non-Parent Node Connection,NODE 10,ZONEHVAC:EQUIPMENTCONNECTIONS,THERMAL ZONE 10,ZoneNode,1
[...]
 Non-Parent Node Connection,NODE 64,AIRLOOPHVAC:ZONESPLITTER,AIR LOOP HVAC ZONE SPLITTER 1,Outlet,1
 Non-Parent Node Connection,NODE 69,AIRLOOPHVAC:ZONESPLITTER,AIR LOOP HVAC ZONE SPLITTER 1,Outlet,1
 Non-Parent Node Connection,NODE 74,AIRLOOPHVAC:ZONESPLITTER,AIR LOOP HVAC ZONE SPLITTER 1,Outlet,1
 Non-Parent Node Connection,NODE 79,AIRLOOPHVAC:ZONESPLITTER,AIR LOOP HVAC ZONE SPLITTER 1,Outlet,1
 Non-Parent Node Connection,NODE 84,AIRLOOPHVAC:ZONESPLITTER,AIR LOOP HVAC ZONE SPLITTER 1,Outlet,1
 Non-Parent Node Connection,NODE 89,AIRLOOPHVAC:ZONESPLITTER,AIR LOOP HVAC ZONE SPLITTER 1,Outlet,1
 Non-Parent Node Connection,NODE 94,AIRLOOPHVAC:ZONESPLITTER,AIR LOOP HVAC ZONE SPLITTER 1,Outlet,1
 Non-Parent Node Connection,NODE 99,AIRLOOPHVAC:ZONESPLITTER,AIR LOOP HVAC ZONE SPLITTER 1,Outlet,1
 Non-Parent Node Connection,NODE 104,AIRLOOPHVAC:ZONESPLITTER,AIR LOOP HVAC ZONE SPLITTER 1,Outlet,1
 Non-Parent Node Connection,NODE 109,AIRLOOPHVAC:ZONESPLITTER,AIR LOOP HVAC ZONE SPLITTER 1,Outlet,1
 Non-Parent Node Connection,NODE 114,AIRLOOPHVAC:ZONESPLITTER,AIR LOOP HVAC ZONE SPLITTER 1,Outlet,1
 Non-Parent Node Connection,NODE 119,AIRLOOPHVAC:ZONESPLITTER,AIR LOOP HVAC ZONE SPLITTER 1,Outlet,1
 Non-Parent Node Connection,NODE 124,AIRLOOPHVAC:ZONESPLITTER,AIR LOOP HVAC ZONE SPLITTER 1,Outlet,1
 Non-Parent Node Connection,NODE 129,AIRLOOPHVAC:ZONESPLITTER,AIR LOOP HVAC ZONE SPLITTER 1,Outlet,1
 Non-Parent Node Connection,NODE 134,AIRLOOPHVAC:ZONESPLITTER,AIR LOOP HVAC ZONE SPLITTER 1,Outlet,1
 Non-Parent Node Connection,NODE 139,AIRLOOPHVAC:ZONESPLITTER,AIR LOOP HVAC ZONE SPLITTER 1,Outlet,1
 Non-Parent Node Connection,AIR TERMINAL SINGLE DUCT VAV REHEAT 2 DAMPER OUTLET,AIRTERMINAL:SINGLEDUCT:VAV:REHEAT,AIR TERMINAL SINGLE DUCT VAV REHEAT 2,Outlet,1
 Non-Parent Node Connection,NODE 44,AIRTERMINAL:SINGLEDUCT:VAV:REHEAT,AIR TERMINAL SINGLE DUCT VAV REHEAT 2,Inlet,1
 Non-Parent Node Connection,NODE 36,COIL:HEATING:WATER,COIL HEATING WATER 1,Inlet,2
 Non-Parent Node Connection,NODE 42,COIL:HEATING:WATER,COIL HEATING WATER 1,Outlet,2
 Non-Parent Node Connection,NODE 29,COIL:HEATING:WATER,COIL HEATING WATER 1,Inlet,1
 Non-Parent Node Connection,NODE 30,COIL:HEATING:WATER,COIL HEATING WATER 1,Outlet,1
 Non-Parent Node Connection,NODE 45,COIL:HEATING:WATER,COIL HEATING WATER 3,Inlet,2
 Non-Parent Node Connection,NODE 46,COIL:HEATING:WATER,COIL HEATING WATER 3,Outlet,2
 Non-Parent Node Connection,AIR TERMINAL SINGLE DUCT VAV REHEAT 2 DAMPER OUTLET,COIL:HEATING:WATER,COIL HEATING WATER 3,Inlet,1
 Non-Parent Node Connection,NODE 25,COIL:HEATING:WATER,COIL HEATING WATER 3,Outlet,1
 Non-Parent Node Connection,NODE 50,COIL:HEATING:WATER,COIL HEATING WATER 4,Inlet,2
 Non-Parent Node Connection,NODE 51,COIL:HEATING:WATER,COIL HEATING WATER 4,Outlet,2
 Non-Parent Node Connection,AIR TERMINAL SINGLE DUCT VAV REHEAT 3 DAMPER OUTLET,COIL:HEATING:WATER,COIL HEATING WATER 4,Inlet,1
 Non-Parent Node Connection,NODE 47,COIL:HEATING:WATER,COIL HEATING WATER 4,Outlet,1
 Non-Parent Node Connection,NODE 55,COIL:HEATING:WATER,COIL HEATING WATER 5,Inlet,2
 Non-Parent Node Connection,NODE 56,COIL:HEATING:WATER,COIL HEATING WATER 5,Outlet,2
 Non-Parent Node Connection,AIR TERMINAL SINGLE DUCT VAV REHEAT 4 DAMPER OUTLET,COIL:HEATING:WATER,COIL HEATING WATER 5,Inlet,1
 Non-Parent Node Connection,NODE 52,COIL:HEATING:WATER,COIL HEATING WATER 5,Outlet,1
 Non-Parent Node Connection,NODE 60,COIL:HEATING:WATER,COIL HEATING WATER 6,Inlet,2
 Non-Parent Node Connection,NODE 61,COIL:HEATING:WATER,COIL HEATING WATER 6,Outlet,2
 Non-Parent Node Connection,AIR TERMINAL SINGLE DUCT VAV REHEAT 5 DAMPER OUTLET,COIL:HEATING:WATER,COIL HEATING WATER 6,Inlet,1
 Non-Parent Node Connection,NODE 57,COIL:HEATING:WATER,COIL HEATING WATER 6,Outlet,1
 Non-Parent Node Connection,NODE 65,COIL:HEATING:WATER,COIL HEATING WATER 7,Inlet,2
 Non-Parent Node Connection,NODE 66,COIL:HEATING:WATER,COIL HEATING WATER 7,Outlet,2
 Non-Parent Node Connection,AIR TERMINAL SINGLE DUCT VAV REHEAT 6 DAMPER OUTLET,COIL:HEATING:WATER,COIL HEATING WATER 7,Inlet,1
 Non-Parent Node Connection,NODE 62,COIL:HEATING:WATER,COIL HEATING WATER 7,Outlet,1
 Non-Parent Node Connection,NODE 70,COIL:HEATING:WATER,COIL HEATING WATER 8,Inlet,2
 Non-Parent Node Connection,NODE 71,COIL:HEATING:WATER,COIL HEATING WATER 8,Outlet,2
 Non-Parent Node Connection,AIR TERMINAL SINGLE DUCT VAV REHEAT 7 DAMPER OUTLET,COIL:HEATING:WATER,COIL HEATING WATER 8,Inlet,1
 Non-Parent Node Connection,NODE 67,COIL:HEATING:WATER,COIL HEATING WATER 8,Outlet,1
 Non-Parent Node Connection,NODE 75,COIL:HEATING:WATER,COIL HEATING WATER 9,Inlet,2
 Non-Parent Node Connection,NODE 76,COIL:HEATING:WATER,COIL HEATING WATER 9,Outlet,2
 Non-Parent Node Connection,AIR TERMINAL SINGLE DUCT VAV REHEAT 8 DAMPER OUTLET,COIL:HEATING:WATER,COIL HEATING WATER 9,Inlet,1
 Non-Parent Node Connection,NODE 72,COIL:HEATING:WATER,COIL HEATING WATER 9,Outlet,1
 Non-Parent Node Connection,NODE 80,COIL:HEATING:WATER,COIL HEATING WATER 10,Inlet,2
 Non-Parent Node Connection,NODE 81,COIL:HEATING:WATER,COIL HEATING WATER 10,Outlet,2
 Non-Parent Node Connection,AIR TERMINAL SINGLE DUCT VAV REHEAT 9 DAMPER OUTLET,COIL:HEATING:WATER,COIL HEATING WATER 10,Inlet,1
 Non-Parent Node Connection,NODE 77,COIL:HEATING:WATER,COIL HEATING WATER 10,Outlet,1
 Non-Parent Node Connection,NODE 85,COIL:HEATING:WATER,COIL HEATING WATER 11,Inlet,2
 Non-Parent Node Connection,NODE 86,COIL:HEATING:WATER,COIL HEATING WATER 11,Outlet,2
 Non-Parent Node Connection,AIR TERMINAL SINGLE DUCT VAV REHEAT 10 DAMPER OUTLET,COIL:HEATING:WATER,COIL HEATING WATER 11,Inlet,1
 Non-Parent Node Connection,NODE 82,COIL:HEATING:WATER,COIL HEATING WATER 11,Outlet,1
 Non-Parent Node Connection,NODE 90,COIL:HEATING:WATER,COIL HEATING WATER 12,Inlet,2
 Non-Parent Node Connection,NODE 91,COIL:HEATING:WATER,COIL HEATING WATER 12,Outlet,2
 Non-Parent Node Connection,AIR TERMINAL SINGLE DUCT VAV REHEAT 11 DAMPER OUTLET,COIL:HEATING:WATER,COIL HEATING WATER 12,Inlet,1
 Non-Parent Node Connection,NODE 87,COIL:HEATING:WATER,COIL HEATING WATER 12,Outlet,1
 Non-Parent Node Connection,NODE 95,COIL:HEATING:WATER,COIL HEATING WATER 13,Inlet,2
 Non-Parent Node Connection,NODE 96,COIL:HEATING:WATER,COIL HEATING WATER 13,Outlet,2
 Non-Parent Node Connection,AIR TERMINAL SINGLE DUCT VAV REHEAT 12 DAMPER OUTLET,COIL:HEATING:WATER,COIL HEATING WATER 13,Inlet,1
 Non-Parent Node Connection,NODE 92,COIL:HEATING:WATER,COIL HEATING WATER 13,Outlet,1
 Non-Parent Node Connection,NODE 100,COIL:HEATING:WATER,COIL HEATING WATER 14,Inlet,2
 Non-Parent Node Connection,NODE 101,COIL:HEATING:WATER,COIL HEATING WATER 14,Outlet,2
 Non-Parent Node Connection,AIR TERMINAL SINGLE DUCT VAV REHEAT 13 DAMPER OUTLET,COIL:HEATING:WATER,COIL HEATING WATER 14,Inlet,1
 Non-Parent Node Connection,NODE 97,COIL:HEATING:WATER,COIL HEATING WATER 14,Outlet,1
 Non-Parent Node Connection,NODE 105,COIL:HEATING:WATER,COIL HEATING WATER 15,Inlet,2
 Non-Parent Node Connection,NODE 106,COIL:HEATING:WATER,COIL HEATING WATER 15,Outlet,2
 Non-Parent Node Connection,AIR TERMINAL SINGLE DUCT VAV REHEAT 14 DAMPER OUTLET,COIL:HEATING:WATER,COIL HEATING WATER 15,Inlet,1
 Non-Parent Node Connection,NODE 102,COIL:HEATING:WATER,COIL HEATING WATER 15,Outlet,1
 Non-Parent Node Connection,NODE 110,COIL:HEATING:WATER,COIL HEATING WATER 16,Inlet,2
 Non-Parent Node Connection,NODE 111,COIL:HEATING:WATER,COIL HEATING WATER 16,Outlet,2
 Non-Parent Node Connection,AIR TERMINAL SINGLE DUCT VAV REHEAT 15 DAMPER OUTLET,COIL:HEATING:WATER,COIL HEATING WATER 16,Inlet,1
 Non-Parent Node Connection,NODE 107,COIL:HEATING:WATER,COIL HEATING WATER 16,Outlet,1
 Non-Parent Node Connection,NODE 115,COIL:HEATING:WATER,COIL HEATING WATER 17,Inlet,2
 Non-Parent Node Connection,NODE 116,COIL:HEATING:WATER,COIL HEATING WATER 17,Outlet,2
 Non-Parent Node Connection,AIR TERMINAL SINGLE DUCT VAV REHEAT 16 DAMPER OUTLET,COIL:HEATING:WATER,COIL HEATING WATER 17,Inlet,1
 Non-Parent Node Connection,NODE 112,COIL:HEATING:WATER,COIL HEATING WATER 17,Outlet,1
 Non-Parent Node Connection,NODE 120,COIL:HEATING:WATER,COIL HEATING WATER 18,Inlet,2
 Non-Parent Node Connection,NODE 121,COIL:HEATING:WATER,COIL HEATING WATER 18,Outlet,2
 Non-Parent Node Connection,AIR TERMINAL SINGLE DUCT VAV REHEAT 17 DAMPER OUTLET,COIL:HEATING:WATER,COIL HEATING WATER 18,Inlet,1
 Non-Parent Node Connection,NODE 117,COIL:HEATING:WATER,COIL HEATING WATER 18,Outlet,1
 Non-Parent Node Connection,NODE 125,COIL:HEATING:WATER,COIL HEATING WATER 19,Inlet,2
 Non-Parent Node Connection,NODE 126,COIL:HEATING:WATER,COIL HEATING WATER 19,Outlet,2
 Non-Parent Node Connection,AIR TERMINAL SINGLE DUCT VAV REHEAT 18 DAMPER OUTLET,COIL:HEATING:WATER,COIL HEATING WATER 19,Inlet,1
 Non-Parent Node Connection,NODE 122,COIL:HEATING:WATER,COIL HEATING WATER 19,Outlet,1
 Non-Parent Node Connection,NODE 130,COIL:HEATING:WATER,COIL HEATING WATER 20,Inlet,2
 Non-Parent Node Connection,NODE 131,COIL:HEATING:WATER,COIL HEATING WATER 20,Outlet,2
 Non-Parent Node Connection,AIR TERMINAL SINGLE DUCT VAV REHEAT 19 DAMPER OUTLET,COIL:HEATING:WATER,COIL HEATING WATER 20,Inlet,1
 Non-Parent Node Connection,NODE 127,COIL:HEATING:WATER,COIL HEATING WATER 20,Outlet,1
 Non-Parent Node Connection,NODE 135,COIL:HEATING:WATER,COIL HEATING WATER 21,Inlet,2
 Non-Parent Node Connection,NODE 136,COIL:HEATING:WATER,COIL HEATING WATER 21,Outlet,2
 Non-Parent Node Connection,AIR TERMINAL SINGLE DUCT VAV REHEAT 20 DAMPER OUTLET,COIL:HEATING:WATER,COIL HEATING WATER 21,Inlet,1
 Non-Parent Node Connection,NODE 132,COIL:HEATING:WATER,COIL HEATING WATER 21,Outlet,1
 Non-Parent Node Connection,NODE 140,COIL:HEATING:WATER,COIL HEATING WATER 22,Inlet,2
 Non-Parent Node Connection,NODE 141,COIL:HEATING:WATER,COIL HEATING WATER 22,Outlet,2
 Non-Parent Node Connection,AIR TERMINAL SINGLE DUCT VAV REHEAT 21 DAMPER OUTLET,COIL:HEATING:WATER,COIL HEATING WATER 22,Inlet,1
 Non-Parent Node Connection,NODE 137,COIL:HEATING:WATER,COIL HEATING WATER 22,Outlet,1
 Non-Parent Node Connection,AIR TERMINAL SINGLE DUCT VAV REHEAT 3 DAMPER OUTLET,AIRTERMINAL:SINGLEDUCT:VAV:REHEAT,AIR TERMINAL SINGLE DUCT VAV REHEAT 3,Outlet,1
 Non-Parent Node Connection,NODE 49,AIRTERMINAL:SINGLEDUCT:VAV:REHEAT,AIR TERMINAL SINGLE DUCT VAV REHEAT 3,Inlet,1
 Non-Parent Node Connection,AIR TERMINAL SINGLE DUCT VAV REHEAT 4 DAMPER OUTLET,AIRTERMINAL:SINGLEDUCT:VAV:REHEAT,AIR TERMINAL SINGLE DUCT VAV REHEAT 4,Outlet,1
 Non-Parent Node Connection,NODE 54,AIRTERMINAL:SINGLEDUCT:VAV:REHEAT,AIR TERMINAL SINGLE DUCT VAV REHEAT 4,Inlet,1
 Non-Parent Node Connection,AIR TERMINAL SINGLE DUCT VAV REHEAT 5 DAMPER OUTLET,AIRTERMINAL:SINGLEDUCT:VAV:REHEAT,AIR TERMINAL SINGLE DUCT VAV REHEAT 5,Outlet,1
 Non-Parent Node Connection,NODE 59,AIRTERMINAL:SINGLEDUCT:VAV:REHEAT,AIR TERMINAL SINGLE DUCT VAV REHEAT 5,Inlet,1
 Non-Parent Node Connection,AIR TERMINAL SINGLE DUCT VAV REHEAT 6 DAMPER OUTLET,AIRTERMINAL:SINGLEDUCT:VAV:REHEAT,AIR TERMINAL SINGLE DUCT VAV REHEAT 6,Outlet,1
 Non-Parent Node Connection,NODE 64,AIRTERMINAL:SINGLEDUCT:VAV:REHEAT,AIR TERMINAL SINGLE DUCT VAV REHEAT 6,Inlet,1
 Non-Parent Node Connection,AIR TERMINAL SINGLE DUCT VAV REHEAT 7 DAMPER OUTLET,AIRTERMINAL:SINGLEDUCT:VAV:REHEAT,AIR TERMINAL SINGLE DUCT VAV REHEAT 7,Outlet,1
 Non-Parent Node Connection,NODE 69,AIRTERMINAL:SINGLEDUCT:VAV:REHEAT,AIR TERMINAL SINGLE DUCT VAV REHEAT 7,Inlet,1
 Non-Parent Node Connection,AIR TERMINAL SINGLE DUCT VAV REHEAT 8 DAMPER OUTLET,AIRTERMINAL:SINGLEDUCT:VAV:REHEAT,AIR TERMINAL SINGLE DUCT VAV REHEAT 8,Outlet,1
 Non-Parent Node Connection,NODE 74,AIRTERMINAL:SINGLEDUCT:VAV:REHEAT,AIR TERMINAL SINGLE DUCT VAV REHEAT 8,Inlet,1
 Non-Parent Node Connection,AIR TERMINAL SINGLE DUCT VAV REHEAT 9 DAMPER OUTLET,AIRTERMINAL:SINGLEDUCT:VAV:REHEAT,AIR TERMINAL SINGLE DUCT VAV REHEAT 9,Outlet,1
 Non-Parent Node Connection,NODE 79,AIRTERMINAL:SINGLEDUCT:VAV:REHEAT,AIR TERMINAL SINGLE DUCT VAV REHEAT 9,Inlet,1
 Non-Parent Node Connection,AIR TERMINAL SINGLE DUCT VAV REHEAT 10 DAMPER OUTLET,AIRTERMINAL:SINGLEDUCT:VAV:REHEAT,AIR TERMINAL SINGLE DUCT VAV REHEAT 10,Outlet,1
 Non-Parent Node Connection,NODE 84,AIRTERMINAL:SINGLEDUCT:VAV:REHEAT,AIR TERMINAL SINGLE DUCT VAV REHEAT 10,Inlet,1
 Non-Parent Node Connection,AIR TERMINAL SINGLE DUCT VAV REHEAT 11 DAMPER OUTLET,AIRTERMINAL:SINGLEDUCT:VAV:REHEAT,AIR TERMINAL SINGLE DUCT VAV REHEAT 11,Outlet,1
 Non-Parent Node Connection,NODE 89,AIRTERMINAL:SINGLEDUCT:VAV:REHEAT,AIR TERMINAL SINGLE DUCT VAV REHEAT 11,Inlet,1
 Non-Parent Node Connection,AIR TERMINAL SINGLE DUCT VAV REHEAT 12 DAMPER OUTLET,AIRTERMINAL:SINGLEDUCT:VAV:REHEAT,AIR TERMINAL SINGLE DUCT VAV REHEAT 12,Outlet,1
 Non-Parent Node Connection,NODE 94,AIRTERMINAL:SINGLEDUCT:VAV:REHEAT,AIR TERMINAL SINGLE DUCT VAV REHEAT 12,Inlet,1
 Non-Parent Node Connection,AIR TERMINAL SINGLE DUCT VAV REHEAT 13 DAMPER OUTLET,AIRTERMINAL:SINGLEDUCT:VAV:REHEAT,AIR TERMINAL SINGLE DUCT VAV REHEAT 13,Outlet,1
 Non-Parent Node Connection,NODE 99,AIRTERMINAL:SINGLEDUCT:VAV:REHEAT,AIR TERMINAL SINGLE DUCT VAV REHEAT 13,Inlet,1
 Non-Parent Node Connection,AIR TERMINAL SINGLE DUCT VAV REHEAT 14 DAMPER OUTLET,AIRTERMINAL:SINGLEDUCT:VAV:REHEAT,AIR TERMINAL SINGLE DUCT VAV REHEAT 14,Outlet,1
 Non-Parent Node Connection,NODE 104,AIRTERMINAL:SINGLEDUCT:VAV:REHEAT,AIR TERMINAL SINGLE DUCT VAV REHEAT 14,Inlet,1
 Non-Parent Node Connection,AIR TERMINAL SINGLE DUCT VAV REHEAT 15 DAMPER OUTLET,AIRTERMINAL:SINGLEDUCT:VAV:REHEAT,AIR TERMINAL SINGLE DUCT VAV REHEAT 15,Outlet,1
 Non-Parent Node Connection,NODE 109,AIRTERMINAL:SINGLEDUCT:VAV:REHEAT,AIR TERMINAL SINGLE DUCT VAV REHEAT 15,Inlet,1
 Non-Parent Node Connection,AIR TERMINAL SINGLE DUCT VAV REHEAT 16 DAMPER OUTLET,AIRTERMINAL:SINGLEDUCT:VAV:REHEAT,AIR TERMINAL SINGLE DUCT VAV REHEAT 16,Outlet,1
 Non-Parent Node Connection,NODE 114,AIRTERMINAL:SINGLEDUCT:VAV:REHEAT,AIR TERMINAL SINGLE DUCT VAV REHEAT 16,Inlet,1
 Non-Parent Node Connection,AIR TERMINAL SINGLE DUCT VAV REHEAT 17 DAMPER OUTLET,AIRTERMINAL:SINGLEDUCT:VAV:REHEAT,AIR TERMINAL SINGLE DUCT VAV REHEAT 17,Outlet,1
 Non-Parent Node Connection,NODE 119,AIRTERMINAL:SINGLEDUCT:VAV:REHEAT,AIR TERMINAL SINGLE DUCT VAV REHEAT 17,Inlet,1
 Non-Parent Node Connection,AIR TERMINAL SINGLE DUCT VAV REHEAT 18 DAMPER OUTLET,AIRTERMINAL:SINGLEDUCT:VAV:REHEAT,AIR TERMINAL SINGLE DUCT VAV REHEAT 18,Outlet,1
 Non-Parent Node Connection,NODE 124,AIRTERMINAL:SINGLEDUCT:VAV:REHEAT,AIR TERMINAL SINGLE DUCT VAV REHEAT 18,Inlet,1
 Non-Parent Node Connection,AIR TERMINAL SINGLE DUCT VAV REHEAT 19 DAMPER OUTLET,AIRTERMINAL:SINGLEDUCT:VAV:REHEAT,AIR TERMINAL SINGLE DUCT VAV REHEAT 19,Outlet,1
 Non-Parent Node Connection,NODE 129,AIRTERMINAL:SINGLEDUCT:VAV:REHEAT,AIR TERMINAL SINGLE DUCT VAV REHEAT 19,Inlet,1
 Non-Parent Node Connection,AIR TERMINAL SINGLE DUCT VAV REHEAT 20 DAMPER OUTLET,AIRTERMINAL:SINGLEDUCT:VAV:REHEAT,AIR TERMINAL SINGLE DUCT VAV REHEAT 20,Outlet,1
 Non-Parent Node Connection,NODE 134,AIRTERMINAL:SINGLEDUCT:VAV:REHEAT,AIR TERMINAL SINGLE DUCT VAV REHEAT 20,Inlet,1
 Non-Parent Node Connection,AIR TERMINAL SINGLE DUCT VAV REHEAT 21 DAMPER OUTLET,AIRTERMINAL:SINGLEDUCT:VAV:REHEAT,AIR TERMINAL SINGLE DUCT VAV REHEAT 21,Outlet,1
 Non-Parent Node Connection,NODE 139,AIRTERMINAL:SINGLEDUCT:VAV:REHEAT,AIR TERMINAL SINGLE DUCT VAV REHEAT 21,Inlet,1
 Non-Parent Node Connection,NODE 24,AIRLOOPHVAC:ZONEMIXER,AIR LOOP HVAC ZONE MIXER 1,Outlet,1
 Non-Parent Node Connection,NODE 43,AIRLOOPHVAC:ZONEMIXER,AIR LOOP HVAC ZONE MIXER 1,Inlet,1
 Non-Parent Node Connection,NODE 48,AIRLOOPHVAC:ZONEMIXER,AIR LOOP HVAC ZONE MIXER 1,Inlet,1
 Non-Parent Node Connection,NODE 53,AIRLOOPHVAC:ZONEMIXER,AIR LOOP HVAC ZONE MIXER 1,Inlet,1
 Non-Parent Node Connection,NODE 58,AIRLOOPHVAC:ZONEMIXER,AIR LOOP HVAC ZONE MIXER 1,Inlet,1
 Non-Parent Node Connection,NODE 63,AIRLOOPHVAC:ZONEMIXER,AIR LOOP HVAC ZONE MIXER 1,Inlet,1
 Non-Parent Node Connection,NODE 68,AIRLOOPHVAC:ZONEMIXER,AIR LOOP HVAC ZONE MIXER 1,Inlet,1
 Non-Parent Node Connection,NODE 73,AIRLOOPHVAC:ZONEMIXER,AIR LOOP HVAC ZONE MIXER 1,Inlet,1
 Non-Parent Node Connection,NODE 78,AIRLOOPHVAC:ZONEMIXER,AIR LOOP HVAC ZONE MIXER 1,Inlet,1
 Non-Parent Node Connection,NODE 83,AIRLOOPHVAC:ZONEMIXER,AIR LOOP HVAC ZONE MIXER 1,Inlet,1
 Non-Parent Node Connection,NODE 88,AIRLOOPHVAC:ZONEMIXER,AIR LOOP HVAC ZONE MIXER 1,Inlet,1
 Non-Parent Node Connection,NODE 93,AIRLOOPHVAC:ZONEMIXER,AIR LOOP HVAC ZONE MIXER 1,Inlet,1
 Non-Parent Node Connection,NODE 98,AIRLOOPHVAC:ZONEMIXER,AIR LOOP HVAC ZONE MIXER 1,Inlet,1
 Non-Parent Node Connection,NODE 103,AIRLOOPHVAC:ZONEMIXER,AIR LOOP HVAC ZONE MIXER 1,Inlet,1
 Non-Parent Node Connection,NODE 108,AIRLOOPHVAC:ZONEMIXER,AIR LOOP HVAC ZONE MIXER 1,Inlet,1
 Non-Parent Node Connection,NODE 113,AIRLOOPHVAC:ZONEMIXER,AIR LOOP HVAC ZONE MIXER 1,Inlet,1
 Non-Parent Node Connection,NODE 118,AIRLOOPHVAC:ZONEMIXER,AIR LOOP HVAC ZONE MIXER 1,Inlet,1
 Non-Parent Node Connection,NODE 123,AIRLOOPHVAC:ZONEMIXER,AIR LOOP HVAC ZONE MIXER 1,Inlet,1
 Non-Parent Node Connection,NODE 128,AIRLOOPHVAC:ZONEMIXER,AIR LOOP HVAC ZONE MIXER 1,Inlet,1
 Non-Parent Node Connection,NODE 133,AIRLOOPHVAC:ZONEMIXER,AIR LOOP HVAC ZONE MIXER 1,Inlet,1
 Non-Parent Node Connection,NODE 138,AIRLOOPHVAC:ZONEMIXER,AIR LOOP HVAC ZONE MIXER 1,Inlet,1
 Non-Parent Node Connection,NODE 28,OUTDOORAIR:MIXER,OUTDOORAIR:MIXER {7083327B-BDD1-433B-AD85-800A66D12D0F},Outlet,1
 Non-Parent Node Connection,NODE 26,OUTDOORAIR:MIXER,OUTDOORAIR:MIXER {7083327B-BDD1-433B-AD85-800A66D12D0F},Inlet,1
 Non-Parent Node Connection,NODE 27,OUTDOORAIR:MIXER,OUTDOORAIR:MIXER {7083327B-BDD1-433B-AD85-800A66D12D0F},ReliefAir,1
 Non-Parent Node Connection,NODE 21,OUTDOORAIR:MIXER,OUTDOORAIR:MIXER {7083327B-BDD1-433B-AD85-800A66D12D0F},Inlet,1
 Non-Parent Node Connection,NODE 30,CONTROLLER:WATERCOIL,CONTROLLER WATER COIL 1,Sensor,1
 Non-Parent Node Connection,NODE 36,CONTROLLER:WATERCOIL,CONTROLLER WATER COIL 1,Actuator,1
 Non-Parent Node Connection,NODE 28,CONTROLLER:OUTDOORAIR,CONTROLLER OUTDOOR AIR 1,Sensor,1
 Non-Parent Node Connection,NODE 26,CONTROLLER:OUTDOORAIR,CONTROLLER OUTDOOR AIR 1,Actuator,1
 Non-Parent Node Connection,NODE 27,CONTROLLER:OUTDOORAIR,CONTROLLER OUTDOOR AIR 1,Actuator,1
 Non-Parent Node Connection,NODE 21,CONTROLLER:OUTDOORAIR,CONTROLLER OUTDOOR AIR 1,Sensor,1
 Non-Parent Node Connection,NODE 28,COIL:COOLING:DX:TWOSPEED,COIL COOLING DX TWO SPEED 1,Inlet,1
 Non-Parent Node Connection,NODE 29,COIL:COOLING:DX:TWOSPEED,COIL COOLING DX TWO SPEED 1,Outlet,1
 Non-Parent Node Connection,NODE 30,FAN:VARIABLEVOLUME,FAN VARIABLE VOLUME 1,Inlet,1
 Non-Parent Node Connection,NODE 22,FAN:VARIABLEVOLUME,FAN VARIABLE VOLUME 1,Outlet,1
 Non-Parent Node Connection,NODE 39,PIPE:ADIABATIC,PIPE ADIABATIC 1,Inlet,1
 Non-Parent Node Connection,NODE 40,PIPE:ADIABATIC,PIPE ADIABATIC 1,Outlet,1
 Non-Parent Node Connection,NODE 41,PIPE:ADIABATIC,PIPE ADIABATIC 2,Inlet,1
 Non-Parent Node Connection,NODE 32,PIPE:ADIABATIC,PIPE ADIABATIC 2,Outlet,1
 Non-Parent Node Connection,NODE 34,PIPE:ADIABATIC,PLANT LOOP 1 DEMAND INLET PIPE,Inlet,1
 Non-Parent Node Connection,PLANT LOOP 1 DEMAND INLET PIPE NODE,PIPE:ADIABATIC,PLANT LOOP 1 DEMAND INLET PIPE,Outlet,1
 Non-Parent Node Connection,PLANT LOOP 1 DEMAND BYPASS PIPE INLET NODE,PIPE:ADIABATIC,PLANT LOOP 1 DEMAND BYPASS PIPE,Inlet,1
 Non-Parent Node Connection,PLANT LOOP 1 DEMAND BYPASS PIPE OUTLET NODE,PIPE:ADIABATIC,PLANT LOOP 1 DEMAND BYPASS PIPE,Outlet,1
 Non-Parent Node Connection,PLANT LOOP 1 DEMAND OUTLET PIPE NODE,PIPE:ADIABATIC,PLANT LOOP 1 DEMAND OUTLET PIPE,Inlet,1
 Non-Parent Node Connection,NODE 35,PIPE:ADIABATIC,PLANT LOOP 1 DEMAND OUTLET PIPE,Outlet,1
 Non-Parent Node Connection,NODE 33,BOILER:HOTWATER,BOILER HOT WATER 1,Inlet,1
 Non-Parent Node Connection,NODE 38,BOILER:HOTWATER,BOILER HOT WATER 1,Outlet,1
 Non-Parent Node Connection,NODE 31,PUMP:VARIABLESPEED,PUMP VARIABLE SPEED 1,Inlet,1
 Non-Parent Node Connection,NODE 37,PUMP:VARIABLESPEED,PUMP VARIABLE SPEED 1,Outlet,1
