Program Version,EnergyPlus-Linux-OMP-32 7.2.0.006, YMD=2013.01.22 13:30
! <Version>, Version ID
 Version, 7.2
! <Timesteps per Hour>, #TimeSteps, Minutes per TimeStep {minutes}
 Timesteps per Hour,  4, 15
! <System Convergence Limits>, Minimum System TimeStep {minutes}, Max HVAC Iterations,  Minimum Plant Iterations, Maximum Plant Iterations
 System Convergence Limits, 1, 20, 2, 8
! <Simulation Control>, Do Zone Sizing, Do System Sizing, Do Plant Sizing, Do Design Days, Do Weather Simulation
 Simulation Control, Yes, Yes, Yes, Yes, Yes
! <Output Reporting Tolerances>, Tolerance for Time Heating Setpoint Not Met, Tolerance for Time Cooling Setpoint Not Met
 Output Reporting Tolerances, 0.200, 0.200, 
! <Site:GroundTemperature:BuildingSurface>, Months From Jan to Dec {Deg C}
 Site:GroundTemperature:BuildingSurface,  18.00,  18.00,  18.00,  18.00,  18.00,  18.00,  18.00,  18.00,  18.00,  18.00,  18.00,  18.00
! <Site:GroundTemperature:FCfactorMethod>, Months From Jan to Dec {Deg C}
 Site:GroundTemperature:FCfactorMethod,  -1.89,  -3.06,  -0.99,   2.23,  10.68,  17.20,  21.60,  22.94,  20.66,  15.60,   8.83,   2.56
! <Site:GroundTemperature:Shallow>, Months From Jan to Dec {Deg C}
 Site:GroundTemperature:Shallow,  13.00,  13.00,  13.00,  13.00,  13.00,  13.00,  13.00,  13.00,  13.00,  13.00,  13.00,  13.00
! <Site:GroundTemperature:Deep>, Months From Jan to Dec {Deg C}
 Site:GroundTemperature:Deep,  16.00,  16.00,  16.00,  16.00,  16.00,  16.00,  16.00,  16.00,  16.00,  16.00,  16.00,  16.00
! <Site:GroundReflectance>, Months From Jan to Dec {dimensionless}
 Site:GroundReflectance,  0.20,  0.20,  0.20,  0.20,  0.20,  0.20,  0.20,  0.20,  0.20,  0.20,  0.20,  0.20
! <Site:GroundReflectance:SnowModifier>, Normal, Daylighting {dimensionless}
 Site:GroundReflectance:SnowModifier,   1.000,   1.000
! <Site:GroundReflectance:Snow>, Months From Jan to Dec {dimensionless}
 Site:GroundReflectance:Snow,  0.20,  0.20,  0.20,  0.20,  0.20,  0.20,  0.20,  0.20,  0.20,  0.20,  0.20,  0.20
! <Site:GroundReflectance:Snow:Daylighting>, Months From Jan to Dec {dimensionless}
 Site:GroundReflectance:Snow:Daylighting,  0.20,  0.20,  0.20,  0.20,  0.20,  0.20,  0.20,  0.20,  0.20,  0.20,  0.20,  0.20
! <Environment:Weather Station>,Wind Sensor Height Above Ground {m},Wind Speed Profile Exponent {},Wind Speed Profile Boundary Layer Thickness {m},Air Temperature Sensor Height Above Ground {m},Wind Speed Modifier Coefficient [Internal],Temperature Modifier Coefficient [Internal]
Environment:Weather Station,10.000,0.140,270.000,1.500,1.586,9.750E-003
! <Site:Location>, Location Name, Latitude {N+/S- Deg}, Longitude {E+/W- Deg},  Time Zone Number {GMT+/-}, Elevation {m},  Standard Pressure at Elevation {Pa}, Standard RhoAir at Elevation
Site:Location,Chicago Ohare Intl Ap IL USA TMY3 WMO#=725300,41.98,-87.92,-6.00,201.00,98934,1.1759
! <Building Information>, Building Name,North Axis {deg},Terrain,  Loads Convergence Tolerance Value,Temperature Convergence Tolerance Value,  Solar Distribution,Maximum Number of Warmup Days,Minimum Number of Warmup Days
 Building Information,Building 1,0.000,Suburbs,4.00000E-002,0.40000,FullExterior,25,6
! <Inside Convection Algorithm>, Algorithm {Simple | TARP | CeilingDiffuser | AdaptiveConvectionAlgorithm}
Inside Convection Algorithm,TARP
! <Outside Convection Algorithm>, Algorithm {SimpleCombined | TARP | MoWitt | DOE-2 | AdaptiveConvectionAlgorithm}
Outside Convection Algorithm,DOE-2
! <Sky Radiance Distribution>, Value {Anisotropic}
Sky Radiance Distribution,Anisotropic
! <Zone Air Solution Algorithm>, Value {ThirdOrderBackwardDifference | AnalyticalSolution | EulerMethod}
 Zone Air Solution Algorithm, ThirdOrderBackwardDifference
! <Zone Air Contaminant Balance Simulation>, Simulation {Yes/No}, Carbon Dioxide Concentration
 Zone Air Carbon Dioxide Balance Simulation, No,N/A
! <Zone Air Contaminant Balance Simulation>, Simulation {Yes/No}, Generic Contaminant Concentration
 Zone Air Generic Contaminant Balance Simulation, No,N/A
! <Environment:Site Atmospheric Variation>,Wind Speed Profile Exponent {},Wind Speed Profile Boundary Layer Thickness {m},Air Temperature Gradient Coefficient {K/m}
Environment:Site Atmospheric Variation,0.220,370.000,6.500000E-003
! <SurfaceGeometry>,Starting Corner,Vertex Input Direction,Coordinate System,Daylight Reference Point Coordinate System,Rectangular (Simple) Surface Coordinate System
 Surface Geometry,UpperLeftCorner,Counterclockwise,RelativeCoordinateSystem,RelativeCoordinateSystem,RelativeToZoneOrigin
! <Surface Heat Transfer Algorithm>, Value {CTF - ConductionTransferFunction | EMPD - MoisturePenetrationDepthConductionTransferFunction | CondFD - ConductionFiniteDifference | HAMT - CombinedHeatAndMoistureFiniteElement} - Description,Inside Surface Max Temperature Limit{C}, Surface Convection Coefficient Lower Limit {W/m2-K}, Surface Convection Coefficient Upper Limit {W/m2-K}
Surface Heat Transfer Algorithm, CTF - ConductionTransferFunction,200,0.10,1000.0
! <Shading Summary>, Number of Fixed Detached Shades, Number of Building Detached Shades, Number of Attached Shades
 Shading Summary,0,0,0
! <Zone Summary>, Number of Zones, Number of Zone Surfaces, Number of SubSurfaces
 Zone Summary,20,136,16
! <Zone Information>,Zone Name,North Axis {deg},Origin X-Coordinate {m},Origin Y-Coordinate {m},Origin Z-Coordinate {m},Centroid X-Coordinate {m},Centroid Y-Coordinate {m},Centroid Z-Coordinate {m},Type,Zone Multiplier,Zone List Multiplier,Minimum X {m},Maximum X {m},Minimum Y {m},Maximum Y {m},Minimum Z {m},Maximum Z {m},Ceiling Height {m},Volume {m3},Zone Inside Convection Algorithm {Simple-Detailed-CeilingDiffuser-TrombeWall},Zone Outside Convection Algorithm {Simple-Detailed-Tarp-MoWitt-DOE-2-BLAST}, Floor Area {m2},Exterior Gross Wall Area {m2},Exterior Net Wall Area {m2},Exterior Window Area {m2}, Number of Surfaces, Number of SubSurfaces, Number of Shading SubSurfaces,  Part of Total Building Area
 Zone Information, THERMAL ZONE 1,0.0,3.00,3.00,0.00,33.54,33.54,2.00,1,1,1,3.00,64.08,3.00,64.08,0.00,4.00,4.00,14924.06,TARP,DOE-2,3731.02,0.00,0.00,0.00,6,0,0,Yes
 Zone Information, THERMAL ZONE 4,0.0,3.00,64.08,4.00,33.54,65.63,6.00,1,1,1,0.00,67.08,64.08,67.08,4.00,8.00,4.00,768.98,TARP,DOE-2,192.25,268.33,187.83,80.50,6,1,0,Yes
 Zone Information, THERMAL ZONE 18,0.0,3.00,64.08,12.00,33.54,65.63,14.00,1,1,1,0.00,67.08,64.08,67.08,12.00,16.00,4.00,768.98,TARP,DOE-2,192.25,268.33,187.83,80.50,6,1,0,Yes
 Zone Information, THERMAL ZONE 2,0.0,0.00,0.00,0.00,1.45,33.54,2.00,1,1,1,0.00,3.00,0.00,67.08,0.00,4.00,4.00,768.98,TARP,DOE-2,192.25,268.33,187.83,80.50,6,1,0,Yes
 Zone Information, THERMAL ZONE 5,0.0,3.00,3.00,12.00,33.54,33.54,14.00,1,1,1,3.00,64.08,3.00,64.08,12.00,16.00,4.00,14924.06,TARP,DOE-2,3731.02,0.00,0.00,0.00,6,0,0,Yes
 Zone Information, THERMAL ZONE 17,0.0,0.00,0.00,4.00,33.54,1.45,6.00,1,1,1,0.00,67.08,0.00,3.00,4.00,8.00,4.00,768.98,TARP,DOE-2,192.25,268.33,187.83,80.50,6,1,0,Yes
 Zone Information, THERMAL ZONE 13,0.0,3.00,3.00,8.00,33.54,33.54,10.00,1,1,1,3.00,64.08,3.00,64.08,8.00,12.00,4.00,14924.06,TARP,DOE-2,3731.02,0.00,0.00,0.00,6,0,0,Yes
 Zone Information, THERMAL ZONE 8,0.0,64.08,3.00,12.00,65.63,33.54,14.00,1,1,1,64.08,67.08,0.00,67.08,12.00,16.00,4.00,768.98,TARP,DOE-2,192.25,268.33,187.83,80.50,6,1,0,Yes
 Zone Information, THERMAL ZONE 10,0.0,64.08,3.00,0.00,65.63,33.54,2.00,1,1,1,64.08,67.08,0.00,67.08,0.00,4.00,4.00,768.98,TARP,DOE-2,192.25,268.33,187.83,80.50,6,1,0,Yes
 Zone Information, THERMAL ZONE 3,0.0,64.08,3.00,8.00,65.63,33.54,10.00,1,1,1,64.08,67.08,0.00,67.08,8.00,12.00,4.00,768.98,TARP,DOE-2,192.25,268.33,187.83,80.50,6,1,0,Yes
 Zone Information, THERMAL ZONE 11,0.0,0.00,0.00,8.00,1.45,33.54,10.00,1,1,1,0.00,3.00,0.00,67.08,8.00,12.00,4.00,768.98,TARP,DOE-2,192.25,268.33,187.83,80.50,6,1,0,Yes
 Zone Information, THERMAL ZONE 15,0.0,3.00,64.08,0.00,33.54,65.63,2.00,1,1,1,0.00,67.08,64.08,67.08,0.00,4.00,4.00,768.98,TARP,DOE-2,192.25,268.33,187.83,80.50,6,1,0,Yes
 Zone Information, THERMAL ZONE 7,0.0,0.00,0.00,4.00,1.45,33.54,6.00,1,1,1,0.00,3.00,0.00,67.08,4.00,8.00,4.00,768.98,TARP,DOE-2,192.25,268.33,187.83,80.50,6,1,0,Yes
 Zone Information, THERMAL ZONE 6,0.0,0.00,0.00,8.00,33.54,1.45,10.00,1,1,1,0.00,67.08,0.00,3.00,8.00,12.00,4.00,768.98,TARP,DOE-2,192.25,268.33,187.83,80.50,6,1,0,Yes
 Zone Information, THERMAL ZONE 16,0.0,0.00,0.00,0.00,33.54,1.45,2.00,1,1,1,0.00,67.08,0.00,3.00,0.00,4.00,4.00,768.98,TARP,DOE-2,192.25,268.33,187.83,80.50,6,1,0,Yes
 Zone Information, THERMAL ZONE 20,0.0,3.00,3.00,4.00,33.54,33.54,6.00,1,1,1,3.00,64.08,3.00,64.08,4.00,8.00,4.00,14924.06,TARP,DOE-2,3731.02,0.00,0.00,0.00,6,0,0,Yes
 Zone Information, THERMAL ZONE 14,0.0,0.00,0.00,12.00,33.54,1.45,14.00,1,1,1,0.00,67.08,0.00,3.00,12.00,16.00,4.00,768.98,TARP,DOE-2,192.25,268.33,187.83,80.50,6,1,0,Yes
 Zone Information, THERMAL ZONE 19,0.0,3.00,64.08,8.00,33.54,65.63,10.00,1,1,1,0.00,67.08,64.08,67.08,8.00,12.00,4.00,768.98,TARP,DOE-2,192.25,268.33,187.83,80.50,6,1,0,Yes
 Zone Information, THERMAL ZONE 12,0.0,0.00,0.00,12.00,1.45,33.54,14.00,1,1,1,0.00,3.00,0.00,67.08,12.00,16.00,4.00,768.98,TARP,DOE-2,192.25,268.33,187.83,80.50,6,1,0,Yes
 Zone Information, THERMAL ZONE 9,0.0,64.08,3.00,4.00,65.63,33.54,6.00,1,1,1,64.08,67.08,0.00,67.08,4.00,8.00,4.00,768.98,TARP,DOE-2,192.25,268.33,187.83,80.50,6,1,0,Yes
! <Zone Internal Gains/Equipment Information - Nominal>,Zone Name, Floor Area {m2},# Occupants,Area per Occupant {m2/person},Occupant per Area {person/m2},Interior Lighting {W/m2},Electric Load {W/m2},Gas Load {W/m2},Other Load {W/m2},Hot Water Eq {W/m2},Steam Equipment {W/m2},Sum Loads per Area {W/m2},Outdoor Controlled Baseboard Heat
 Zone Internal Gains, THERMAL ZONE 1,3731.02,0.0,N/A,0.000,0.000,0.000,0.000,0.000,0.000,0.000,0.000,No
 Zone Internal Gains, THERMAL ZONE 4,192.25,0.0,N/A,0.000,0.000,0.000,0.000,0.000,0.000,0.000,0.000,No
 Zone Internal Gains, THERMAL ZONE 18,192.25,0.0,N/A,0.000,0.000,0.000,0.000,0.000,0.000,0.000,0.000,No
 Zone Internal Gains, THERMAL ZONE 2,192.25,0.0,N/A,0.000,0.000,0.000,0.000,0.000,0.000,0.000,0.000,No
 Zone Internal Gains, THERMAL ZONE 5,3731.02,0.0,N/A,0.000,0.000,0.000,0.000,0.000,0.000,0.000,0.000,No
 Zone Internal Gains, THERMAL ZONE 17,192.25,0.0,N/A,0.000,0.000,0.000,0.000,0.000,0.000,0.000,0.000,No
 Zone Internal Gains, THERMAL ZONE 13,3731.02,0.0,N/A,0.000,0.000,0.000,0.000,0.000,0.000,0.000,0.000,No
 Zone Internal Gains, THERMAL ZONE 8,192.25,0.0,N/A,0.000,0.000,0.000,0.000,0.000,0.000,0.000,0.000,No
 Zone Internal Gains, THERMAL ZONE 10,192.25,0.0,N/A,0.000,0.000,0.000,0.000,0.000,0.000,0.000,0.000,No
 Zone Internal Gains, THERMAL ZONE 3,192.25,0.0,N/A,0.000,0.000,0.000,0.000,0.000,0.000,0.000,0.000,No
 Zone Internal Gains, THERMAL ZONE 11,192.25,0.0,N/A,0.000,0.000,0.000,0.000,0.000,0.000,0.000,0.000,No
 Zone Internal Gains, THERMAL ZONE 15,192.25,0.0,N/A,0.000,0.000,0.000,0.000,0.000,0.000,0.000,0.000,No
 Zone Internal Gains, THERMAL ZONE 7,192.25,0.0,N/A,0.000,0.000,0.000,0.000,0.000,0.000,0.000,0.000,No
 Zone Internal Gains, THERMAL ZONE 6,192.25,0.0,N/A,0.000,0.000,0.000,0.000,0.000,0.000,0.000,0.000,No
 Zone Internal Gains, THERMAL ZONE 16,192.25,0.0,N/A,0.000,0.000,0.000,0.000,0.000,0.000,0.000,0.000,No
 Zone Internal Gains, THERMAL ZONE 20,3731.02,0.0,N/A,0.000,0.000,0.000,0.000,0.000,0.000,0.000,0.000,No
 Zone Internal Gains, THERMAL ZONE 14,192.25,0.0,N/A,0.000,0.000,0.000,0.000,0.000,0.000,0.000,0.000,No
 Zone Internal Gains, THERMAL ZONE 19,192.25,0.0,N/A,0.000,0.000,0.000,0.000,0.000,0.000,0.000,0.000,No
 Zone Internal Gains, THERMAL ZONE 12,192.25,0.0,N/A,0.000,0.000,0.000,0.000,0.000,0.000,0.000,0.000,No
 Zone Internal Gains, THERMAL ZONE 9,192.25,0.0,N/A,0.000,0.000,0.000,0.000,0.000,0.000,0.000,0.000,No
! <Shadowing/Sun Position Calculations> [Annual Simulations], Value {days}, Allowable Number Figures in Shadow Overlap {}, Polygon Clipping Algorithm, Sky Diffuse Modeling Algorithm
Shadowing/Sun Position Calculations,20,15000,SutherlandHodgman,SimpleSkyDiffuseModeling
! <RoomAir Model>, Zone Name, Mixing/Mundt/UCSDDV/UCSDCV/UCSDUFI/UCSDUFE/User Defined
RoomAir Model,THERMAL ZONE 1,Mixing/Well-Stirred
RoomAir Model,THERMAL ZONE 4,Mixing/Well-Stirred
RoomAir Model,THERMAL ZONE 18,Mixing/Well-Stirred
RoomAir Model,THERMAL ZONE 2,Mixing/Well-Stirred
RoomAir Model,THERMAL ZONE 5,Mixing/Well-Stirred
RoomAir Model,THERMAL ZONE 17,Mixing/Well-Stirred
RoomAir Model,THERMAL ZONE 13,Mixing/Well-Stirred
RoomAir Model,THERMAL ZONE 8,Mixing/Well-Stirred
RoomAir Model,THERMAL ZONE 10,Mixing/Well-Stirred
RoomAir Model,THERMAL ZONE 3,Mixing/Well-Stirred
RoomAir Model,THERMAL ZONE 11,Mixing/Well-Stirred
RoomAir Model,THERMAL ZONE 15,Mixing/Well-Stirred
RoomAir Model,THERMAL ZONE 7,Mixing/Well-Stirred
RoomAir Model,THERMAL ZONE 6,Mixing/Well-Stirred
RoomAir Model,THERMAL ZONE 16,Mixing/Well-Stirred
RoomAir Model,THERMAL ZONE 20,Mixing/Well-Stirred
RoomAir Model,THERMAL ZONE 14,Mixing/Well-Stirred
RoomAir Model,THERMAL ZONE 19,Mixing/Well-Stirred
RoomAir Model,THERMAL ZONE 12,Mixing/Well-Stirred
RoomAir Model,THERMAL ZONE 9,Mixing/Well-Stirred
! <AirflowNetwork Model:Control>, No Multizone or Distribution/Multizone with Distribution/Multizone without Distribution/Multizone with Distribution only during Fan Operation
AirflowNetwork Model:Control,NoMultizoneOrDistribution
! <Zone Volume Capacitance Multiplier>, Sensible Heat Capacity Multiplier, Moisture Capacity Multiplier, Carbon Dioxide Capacity Multiplier, Generic Contaminant Capacity Multiplier
Zone Volume Capacitance Multiplier,   1.000 ,   1.000,   1.000,   1.000
! <Load Timesteps in Zone Design Calculation Averaging Window>, Value
 Load Timesteps in Zone Design Calculation Averaging Window,    4
! <Heating Sizing Factor Information>, Sizing Factor ID, Value
 Heating Sizing Factor Information, Global,   1.2500    
 Heating Sizing Factor Information, Zone THERMAL ZONE 1,   1.2500    
 Heating Sizing Factor Information, Zone THERMAL ZONE 4,   1.2500    
 Heating Sizing Factor Information, Zone THERMAL ZONE 18,   1.2500    
 Heating Sizing Factor Information, Zone THERMAL ZONE 2,   1.2500    
 Heating Sizing Factor Information, Zone THERMAL ZONE 5,   1.2500    
 Heating Sizing Factor Information, Zone THERMAL ZONE 17,   1.2500    
 Heating Sizing Factor Information, Zone THERMAL ZONE 13,   1.2500    
 Heating Sizing Factor Information, Zone THERMAL ZONE 8,   1.2500    
 Heating Sizing Factor Information, Zone THERMAL ZONE 10,   1.2500    
 Heating Sizing Factor Information, Zone THERMAL ZONE 3,   1.2500    
 Heating Sizing Factor Information, Zone THERMAL ZONE 11,   1.2500    
 Heating Sizing Factor Information, Zone THERMAL ZONE 15,   1.2500    
 Heating Sizing Factor Information, Zone THERMAL ZONE 7,   1.2500    
 Heating Sizing Factor Information, Zone THERMAL ZONE 6,   1.2500    
 Heating Sizing Factor Information, Zone THERMAL ZONE 16,   1.2500    
 Heating Sizing Factor Information, Zone THERMAL ZONE 20,   1.2500    
 Heating Sizing Factor Information, Zone THERMAL ZONE 14,   1.2500    
 Heating Sizing Factor Information, Zone THERMAL ZONE 19,   1.2500    
 Heating Sizing Factor Information, Zone THERMAL ZONE 12,   1.2500    
 Heating Sizing Factor Information, Zone THERMAL ZONE 9,   1.2500    
! <Cooling Sizing Factor Information>, Sizing Factor ID, Value
 Cooling Sizing Factor Information, Global,   1.1500    
 Cooling Sizing Factor Information, Zone THERMAL ZONE 1,   1.1500    
 Cooling Sizing Factor Information, Zone THERMAL ZONE 4,   1.1500    
 Cooling Sizing Factor Information, Zone THERMAL ZONE 18,   1.1500    
 Cooling Sizing Factor Information, Zone THERMAL ZONE 2,   1.1500    
 Cooling Sizing Factor Information, Zone THERMAL ZONE 5,   1.1500    
 Cooling Sizing Factor Information, Zone THERMAL ZONE 17,   1.1500    
 Cooling Sizing Factor Information, Zone THERMAL ZONE 13,   1.1500    
 Cooling Sizing Factor Information, Zone THERMAL ZONE 8,   1.1500    
 Cooling Sizing Factor Information, Zone THERMAL ZONE 10,   1.1500    
 Cooling Sizing Factor Information, Zone THERMAL ZONE 3,   1.1500    
 Cooling Sizing Factor Information, Zone THERMAL ZONE 11,   1.1500    
 Cooling Sizing Factor Information, Zone THERMAL ZONE 15,   1.1500    
 Cooling Sizing Factor Information, Zone THERMAL ZONE 7,   1.1500    
 Cooling Sizing Factor Information, Zone THERMAL ZONE 6,   1.1500    
 Cooling Sizing Factor Information, Zone THERMAL ZONE 16,   1.1500    
 Cooling Sizing Factor Information, Zone THERMAL ZONE 20,   1.1500    
 Cooling Sizing Factor Information, Zone THERMAL ZONE 14,   1.1500    
 Cooling Sizing Factor Information, Zone THERMAL ZONE 19,   1.1500    
 Cooling Sizing Factor Information, Zone THERMAL ZONE 12,   1.1500    
 Cooling Sizing Factor Information, Zone THERMAL ZONE 9,   1.1500    
! <Zone Sizing Information>, Zone Name, Load Type, Calc Des Load {W}, User Des Load {W}, Calc Des Air Flow Rate {m3/s}, User Des Air Flow Rate {m3/s}, Design Day Name, Date/Time of Peak, Temperature at Peak {C}, Humidity Ratio at Peak {kgWater/kgDryAir}, Floor Area {m2}, # Occupants, Calc Outdoor Air Flow Rate {m3/s}
 Zone Sizing Information, THERMAL ZONE 1, Heating, 32497.89133, 40622.36416, 1.69392, 2.11740, CHICAGO OHARE INTL AP ANN HTG 99.6% CONDNS DB, 1/21 24:00:00, -20.00000, 6.49857E-004, 3731.01553, 0.00000, 0.00000
 Zone Sizing Information, THERMAL ZONE 4, Cooling, 2200.27701, 2530.31856, 0.13095, 0.15059, CHICAGO OHARE INTL AP ANN CLG .4% CONDNS DB=>MWB, 7/21 18:30:00, 29.99250, 1.49611E-002, 192.24612, 0.00000, 0.00000
 Zone Sizing Information, THERMAL ZONE 4, Heating, 9394.91170, 11743.63962, 0.48970, 0.61213, CHICAGO OHARE INTL AP ANN HTG 99.6% CONDNS DB, 1/21 24:00:00, -20.00000, 6.49857E-004, 192.24612, 0.00000, 0.00000
 Zone Sizing Information, THERMAL ZONE 18, Cooling, 3881.44149, 4463.65772, 0.23101, 0.26566, CHICAGO OHARE INTL AP ANN CLG .4% CONDNS DB=>MWB, 7/21 18:30:00, 29.99250, 1.49611E-002, 192.24612, 0.00000, 0.00000
 Zone Sizing Information, THERMAL ZONE 18, Heating, 11182.31467, 13977.89334, 0.58287, 0.72858, CHICAGO OHARE INTL AP ANN HTG 99.6% CONDNS DB, 1/21 24:00:00, -20.00000, 6.49857E-004, 192.24612, 0.00000, 0.00000
 Zone Sizing Information, THERMAL ZONE 2, Cooling, 7026.88439, 8080.91705, 0.41821, 0.48094, CHICAGO OHARE INTL AP ANN CLG .4% CONDNS DB=>MWB, 7/21 17:00:00, 31.83000, 1.49611E-002, 192.24612, 0.00000, 0.00000
 Zone Sizing Information, THERMAL ZONE 2, Heating, 10237.18389, 12796.47986, 0.53360, 0.66700, CHICAGO OHARE INTL AP ANN HTG 99.6% CONDNS DB, 1/21 24:00:00, -20.00000, 6.49857E-004, 192.24612, 0.00000, 0.00000
 Zone Sizing Information, THERMAL ZONE 5, Cooling, 5039.53095, 5795.46060, 0.29993, 0.34492, CHICAGO OHARE INTL AP ANN CLG .4% CONDNS DB=>MWB, 7/21 20:15:00, 27.81375, 1.49611E-002, 3731.01553, 0.00000, 0.00000
 Zone Sizing Information, THERMAL ZONE 5, Heating, 34550.59017, 43188.23771, 1.80092, 2.25114, CHICAGO OHARE INTL AP ANN HTG 99.6% CONDNS DB, 1/21 24:00:00, -20.00000, 6.49857E-004, 3731.01553, 0.00000, 0.00000
 Zone Sizing Information, THERMAL ZONE 17, Cooling, 7998.66212, 9198.46144, 0.47605, 0.54746, CHICAGO OHARE INTL AP ANN CLG .4% CONDNS DB=>MWB, 7/21 14:30:00, 33.30000, 1.49611E-002, 192.24612, 0.00000, 0.00000
 Zone Sizing Information, THERMAL ZONE 17, Heating, 9394.91170, 11743.63962, 0.48970, 0.61213, CHICAGO OHARE INTL AP ANN HTG 99.6% CONDNS DB, 1/21 24:00:00, -20.00000, 6.49857E-004, 192.24612, 0.00000, 0.00000
 Zone Sizing Information, THERMAL ZONE 13, Heating, 10137.37825, 12671.72282, 0.52840, 0.66050, CHICAGO OHARE INTL AP ANN HTG 99.6% CONDNS DB, 1/21 24:00:00, -20.00000, 6.49857E-004, 3731.01553, 0.00000, 0.00000
 Zone Sizing Information, THERMAL ZONE 8, Cooling, 10799.16175, 12419.03602, 0.64272, 0.73913, CHICAGO OHARE INTL AP ANN CLG .4% CONDNS DB=>MWB, 7/21 10:30:00, 30.09750, 1.49611E-002, 192.24612, 0.00000, 0.00000
 Zone Sizing Information, THERMAL ZONE 8, Heating, 11007.16679, 13758.95849, 0.57374, 0.71717, CHICAGO OHARE INTL AP ANN HTG 99.6% CONDNS DB, 1/21 24:00:00, -20.00000, 6.49857E-004, 192.24612, 0.00000, 0.00000
 Zone Sizing Information, THERMAL ZONE 10, Cooling, 5170.70112, 5946.30629, 0.30774, 0.35390, CHICAGO OHARE INTL AP ANN CLG .4% CONDNS DB=>MWB, 7/21 09:45:00, 28.86375, 1.49611E-002, 192.24612, 0.00000, 0.00000
 Zone Sizing Information, THERMAL ZONE 10, Heating, 10152.39843, 12690.49803, 0.52918, 0.66148, CHICAGO OHARE INTL AP ANN HTG 99.6% CONDNS DB, 1/21 24:00:00, -20.00000, 6.49857E-004, 192.24612, 0.00000, 0.00000
 Zone Sizing Information, THERMAL ZONE 3, Cooling, 10661.65231, 12260.90016, 0.63454, 0.72972, CHICAGO OHARE INTL AP ANN CLG .4% CONDNS DB=>MWB, 7/21 10:30:00, 30.09750, 1.49611E-002, 192.24612, 0.00000, 0.00000
 Zone Sizing Information, THERMAL ZONE 3, Heating, 9334.32547, 11667.90684, 0.48654, 0.60818, CHICAGO OHARE INTL AP ANN HTG 99.6% CONDNS DB, 1/21 24:00:00, -20.00000, 6.49857E-004, 192.24612, 0.00000, 0.00000
 Zone Sizing Information, THERMAL ZONE 11, Cooling, 12485.01859, 14357.77138, 0.74306, 0.85452, CHICAGO OHARE INTL AP ANN CLG .4% CONDNS DB=>MWB, 7/21 17:30:00, 31.30500, 1.49611E-002, 192.24612, 0.00000, 0.00000
 Zone Sizing Information, THERMAL ZONE 11, Heating, 9499.65516, 11874.56895, 0.49516, 0.61895, CHICAGO OHARE INTL AP ANN HTG 99.6% CONDNS DB, 1/21 24:00:00, -20.00000, 6.49857E-004, 192.24612, 0.00000, 0.00000
 Zone Sizing Information, THERMAL ZONE 15, Heating, 10236.77474, 12795.96843, 0.53358, 0.66698, CHICAGO OHARE INTL AP ANN HTG 99.6% CONDNS DB, 1/21 24:00:00, -20.00000, 6.49857E-004, 192.24612, 0.00000, 0.00000
 Zone Sizing Information, THERMAL ZONE 7, Cooling, 11356.04321, 13059.44970, 0.67587, 0.77725, CHICAGO OHARE INTL AP ANN CLG .4% CONDNS DB=>MWB, 7/21 17:30:00, 31.30500, 1.49611E-002, 192.24612, 0.00000, 0.00000
 Zone Sizing Information, THERMAL ZONE 7, Heating, 9395.65333, 11744.56666, 0.48974, 0.61217, CHICAGO OHARE INTL AP ANN HTG 99.6% CONDNS DB, 1/21 24:00:00, -20.00000, 6.49857E-004, 192.24612, 0.00000, 0.00000
 Zone Sizing Information, THERMAL ZONE 6, Cooling, 9195.14136, 10574.41256, 0.54726, 0.62935, CHICAGO OHARE INTL AP ANN CLG .4% CONDNS DB=>MWB, 7/21 14:15:00, 33.30000, 1.49611E-002, 192.24612, 0.00000, 0.00000
 Zone Sizing Information, THERMAL ZONE 6, Heating, 9498.79001, 11873.48751, 0.49512, 0.61889, CHICAGO OHARE INTL AP ANN HTG 99.6% CONDNS DB, 1/21 24:00:00, -20.00000, 6.49857E-004, 192.24612, 0.00000, 0.00000
 Zone Sizing Information, THERMAL ZONE 16, Cooling, 3725.41309, 4284.22505, 0.22172, 0.25498, CHICAGO OHARE INTL AP ANN CLG .4% CONDNS DB=>MWB, 7/21 13:45:00, 33.16875, 1.49611E-002, 192.24612, 0.00000, 0.00000
 Zone Sizing Information, THERMAL ZONE 16, Heating, 10236.77474, 12795.96843, 0.53358, 0.66698, CHICAGO OHARE INTL AP ANN HTG 99.6% CONDNS DB, 1/21 24:00:00, -20.00000, 6.49857E-004, 192.24612, 0.00000, 0.00000
 Zone Sizing Information, THERMAL ZONE 20, Heating, 9888.60103, 12360.75129, 0.51543, 0.64429, CHICAGO OHARE INTL AP ANN HTG 99.6% CONDNS DB, 1/21 24:00:00, -20.00000, 6.49857E-004, 3731.01553, 0.00000, 0.00000
 Zone Sizing Information, THERMAL ZONE 14, Cooling, 9438.10237, 10853.81773, 0.56172, 0.64598, CHICAGO OHARE INTL AP ANN CLG .4% CONDNS DB=>MWB, 7/21 14:15:00, 33.30000, 1.49611E-002, 192.24612, 0.00000, 0.00000
 Zone Sizing Information, THERMAL ZONE 14, Heating, 11182.31467, 13977.89334, 0.58287, 0.72858, CHICAGO OHARE INTL AP ANN HTG 99.6% CONDNS DB, 1/21 24:00:00, -20.00000, 6.49857E-004, 192.24612, 0.00000, 0.00000
 Zone Sizing Information, THERMAL ZONE 19, Cooling, 3295.46581, 3789.78568, 0.19613, 0.22555, CHICAGO OHARE INTL AP ANN CLG .4% CONDNS DB=>MWB, 7/21 18:30:00, 29.99250, 1.49611E-002, 192.24612, 0.00000, 0.00000
 Zone Sizing Information, THERMAL ZONE 19, Heating, 9498.79001, 11873.48751, 0.49512, 0.61889, CHICAGO OHARE INTL AP ANN HTG 99.6% CONDNS DB, 1/21 24:00:00, -20.00000, 6.49857E-004, 192.24612, 0.00000, 0.00000
 Zone Sizing Information, THERMAL ZONE 12, Cooling, 12863.95344, 14793.54646, 0.76561, 0.88045, CHICAGO OHARE INTL AP ANN CLG .4% CONDNS DB=>MWB, 7/21 17:30:00, 31.30500, 1.49611E-002, 192.24612, 0.00000, 0.00000
 Zone Sizing Information, THERMAL ZONE 12, Heating, 11183.19697, 13978.99622, 0.58291, 0.72864, CHICAGO OHARE INTL AP ANN HTG 99.6% CONDNS DB, 1/21 24:00:00, -20.00000, 6.49857E-004, 192.24612, 0.00000, 0.00000
 Zone Sizing Information, THERMAL ZONE 9, Cooling, 9393.75328, 10802.81627, 0.55908, 0.64294, CHICAGO OHARE INTL AP ANN CLG .4% CONDNS DB=>MWB, 7/21 10:45:00, 30.49125, 1.49611E-002, 192.24612, 0.00000, 0.00000
 Zone Sizing Information, THERMAL ZONE 9, Heating, 9253.44148, 11566.80184, 0.48233, 0.60291, CHICAGO OHARE INTL AP ANN HTG 99.6% CONDNS DB, 1/21 24:00:00, -20.00000, 6.49857E-004, 192.24612, 0.00000, 0.00000
! <System Sizing Information>, System Name, Field Description, Value
 System Sizing Information, AIR LOOP HVAC 1, Calculated Cooling Design Air Flow Rate [m3/s], 8.52334
 System Sizing Information, AIR LOOP HVAC 1, User Cooling Design Air Flow Rate [m3/s], 8.52334
 System Sizing Information, AIR LOOP HVAC 1, Calculated Heating Design Air Flow Rate [m3/s], 16.14301
 System Sizing Information, AIR LOOP HVAC 1, User Heating Design Air Flow Rate [m3/s], 16.14301
! <Component Sizing Information>, Component Type, Component Name, Input Field Description, Value
 Component Sizing Information, AirTerminal:SingleDuct:VAV:Reheat, AIR TERMINAL SINGLE DUCT VAV REHEAT 3, Maximum Air Flow Rate [m3/s], 2.11740
 Component Sizing Information, AirTerminal:SingleDuct:VAV:Reheat, AIR TERMINAL SINGLE DUCT VAV REHEAT 3, Maximum Flow per Zone Floor Area during Reheat [m3/s-m2], 5.67513E-004
 Component Sizing Information, AirTerminal:SingleDuct:VAV:Reheat, AIR TERMINAL SINGLE DUCT VAV REHEAT 3, Maximum Flow Fraction during Reheat [], 1.00000
 Component Sizing Information, AirTerminal:SingleDuct:VAV:Reheat, AIR TERMINAL SINGLE DUCT VAV REHEAT 3, Maximum Reheat Water Flow Rate [m3/s], 1.52575E-003
 Component Sizing Information, AirTerminal:SingleDuct:VAV:Reheat, AIR TERMINAL SINGLE DUCT VAV REHEAT 3, Reheat Coil Sizing Air Volume Flow Rate [m3/s], 2.11740
 Component Sizing Information, Coil:Heating:Water, COIL HEATING WATER 4, Maximum Water Flow Rate [m3/s], 1.52575E-003
 Component Sizing Information, Coil:Heating:Water, COIL HEATING WATER 4, Design Coil Load [W], 70230.85349
 Component Sizing Information, Coil:Heating:Water, COIL HEATING WATER 4, U-Factor Times Area Value [W/K], 1470.87843
! <Water Heating Coil Capacity Information>,Component Type,Name,Nominal Total Capacity {W}
Water Heating Coil Capacity Information,Coil:Heating:Water,COIL HEATING WATER 4,66531.12
 Component Sizing Information, AirTerminal:SingleDuct:VAV:Reheat, AIR TERMINAL SINGLE DUCT VAV REHEAT 15, Maximum Air Flow Rate [m3/s], 0.61213
 Component Sizing Information, AirTerminal:SingleDuct:VAV:Reheat, AIR TERMINAL SINGLE DUCT VAV REHEAT 15, Maximum Flow per Zone Floor Area during Reheat [m3/s-m2], 2.03200E-003
 Component Sizing Information, AirTerminal:SingleDuct:VAV:Reheat, AIR TERMINAL SINGLE DUCT VAV REHEAT 15, Maximum Flow Fraction during Reheat [], 0.63818
 Component Sizing Information, AirTerminal:SingleDuct:VAV:Reheat, AIR TERMINAL SINGLE DUCT VAV REHEAT 15, Maximum Reheat Water Flow Rate [m3/s], 4.41084E-004
 Component Sizing Information, AirTerminal:SingleDuct:VAV:Reheat, AIR TERMINAL SINGLE DUCT VAV REHEAT 15, Reheat Coil Sizing Air Volume Flow Rate [m3/s], 0.61213
 Component Sizing Information, Coil:Heating:Water, COIL HEATING WATER 16, Maximum Water Flow Rate [m3/s], 4.41084E-004
 Component Sizing Information, Coil:Heating:Water, COIL HEATING WATER 16, Design Coil Load [W], 20303.24553
 Component Sizing Information, Coil:Heating:Water, COIL HEATING WATER 16, U-Factor Times Area Value [W/K], 425.22060
Water Heating Coil Capacity Information,Coil:Heating:Water,COIL HEATING WATER 16,19233.68
 Component Sizing Information, AirTerminal:SingleDuct:VAV:Reheat, AIR TERMINAL SINGLE DUCT VAV REHEAT 13, Maximum Air Flow Rate [m3/s], 0.72858
 Component Sizing Information, AirTerminal:SingleDuct:VAV:Reheat, AIR TERMINAL SINGLE DUCT VAV REHEAT 13, Maximum Flow per Zone Floor Area during Reheat [m3/s-m2], 2.03200E-003
 Component Sizing Information, AirTerminal:SingleDuct:VAV:Reheat, AIR TERMINAL SINGLE DUCT VAV REHEAT 13, Maximum Flow Fraction during Reheat [], 0.53617
 Component Sizing Information, AirTerminal:SingleDuct:VAV:Reheat, AIR TERMINAL SINGLE DUCT VAV REHEAT 13, Maximum Reheat Water Flow Rate [m3/s], 5.25002E-004
 Component Sizing Information, AirTerminal:SingleDuct:VAV:Reheat, AIR TERMINAL SINGLE DUCT VAV REHEAT 13, Reheat Coil Sizing Air Volume Flow Rate [m3/s], 0.72858
 Component Sizing Information, Coil:Heating:Water, COIL HEATING WATER 14, Maximum Water Flow Rate [m3/s], 5.25002E-004
 Component Sizing Information, Coil:Heating:Water, COIL HEATING WATER 14, Design Coil Load [W], 24165.98344
 Component Sizing Information, Coil:Heating:Water, COIL HEATING WATER 14, U-Factor Times Area Value [W/K], 506.11978
Water Heating Coil Capacity Information,Coil:Heating:Water,COIL HEATING WATER 14,22892.93
 Component Sizing Information, AirTerminal:SingleDuct:VAV:Reheat, AIR TERMINAL SINGLE DUCT VAV REHEAT 10, Maximum Air Flow Rate [m3/s], 0.66700
 Component Sizing Information, AirTerminal:SingleDuct:VAV:Reheat, AIR TERMINAL SINGLE DUCT VAV REHEAT 10, Maximum Flow per Zone Floor Area during Reheat [m3/s-m2], 2.03200E-003
 Component Sizing Information, AirTerminal:SingleDuct:VAV:Reheat, AIR TERMINAL SINGLE DUCT VAV REHEAT 10, Maximum Flow Fraction during Reheat [], 0.58567
 Component Sizing Information, AirTerminal:SingleDuct:VAV:Reheat, AIR TERMINAL SINGLE DUCT VAV REHEAT 10, Maximum Reheat Water Flow Rate [m3/s], 4.80628E-004
 Component Sizing Information, AirTerminal:SingleDuct:VAV:Reheat, AIR TERMINAL SINGLE DUCT VAV REHEAT 10, Reheat Coil Sizing Air Volume Flow Rate [m3/s], 0.66700
 Component Sizing Information, Coil:Heating:Water, COIL HEATING WATER 11, Maximum Water Flow Rate [m3/s], 4.80628E-004
 Component Sizing Information, Coil:Heating:Water, COIL HEATING WATER 11, Design Coil Load [W], 22123.47118
 Component Sizing Information, Coil:Heating:Water, COIL HEATING WATER 11, U-Factor Times Area Value [W/K], 463.34246
Water Heating Coil Capacity Information,Coil:Heating:Water,COIL HEATING WATER 11,20958.02
 Component Sizing Information, AirTerminal:SingleDuct:VAV:Reheat, AIR TERMINAL SINGLE DUCT VAV REHEAT 18, Maximum Air Flow Rate [m3/s], 2.25114
 Component Sizing Information, AirTerminal:SingleDuct:VAV:Reheat, AIR TERMINAL SINGLE DUCT VAV REHEAT 18, Maximum Flow per Zone Floor Area during Reheat [m3/s-m2], 6.03360E-004
 Component Sizing Information, AirTerminal:SingleDuct:VAV:Reheat, AIR TERMINAL SINGLE DUCT VAV REHEAT 18, Maximum Flow Fraction during Reheat [], 1.00000
 Component Sizing Information, AirTerminal:SingleDuct:VAV:Reheat, AIR TERMINAL SINGLE DUCT VAV REHEAT 18, Maximum Reheat Water Flow Rate [m3/s], 1.62213E-003
 Component Sizing Information, AirTerminal:SingleDuct:VAV:Reheat, AIR TERMINAL SINGLE DUCT VAV REHEAT 18, Reheat Coil Sizing Air Volume Flow Rate [m3/s], 2.25114
 Component Sizing Information, Coil:Heating:Water, COIL HEATING WATER 19, Maximum Water Flow Rate [m3/s], 1.62213E-003
 Component Sizing Information, Coil:Heating:Water, COIL HEATING WATER 19, Design Coil Load [W], 74666.91951
 Component Sizing Information, Coil:Heating:Water, COIL HEATING WATER 19, U-Factor Times Area Value [W/K], 1563.78509
Water Heating Coil Capacity Information,Coil:Heating:Water,COIL HEATING WATER 19,70733.49
 Component Sizing Information, AirTerminal:SingleDuct:VAV:Reheat, AIR TERMINAL SINGLE DUCT VAV REHEAT 16, Maximum Air Flow Rate [m3/s], 0.61213
 Component Sizing Information, AirTerminal:SingleDuct:VAV:Reheat, AIR TERMINAL SINGLE DUCT VAV REHEAT 16, Maximum Flow per Zone Floor Area during Reheat [m3/s-m2], 2.03200E-003
 Component Sizing Information, AirTerminal:SingleDuct:VAV:Reheat, AIR TERMINAL SINGLE DUCT VAV REHEAT 16, Maximum Flow Fraction during Reheat [], 0.63818
 Component Sizing Information, AirTerminal:SingleDuct:VAV:Reheat, AIR TERMINAL SINGLE DUCT VAV REHEAT 16, Maximum Reheat Water Flow Rate [m3/s], 4.41084E-004
 Component Sizing Information, AirTerminal:SingleDuct:VAV:Reheat, AIR TERMINAL SINGLE DUCT VAV REHEAT 16, Reheat Coil Sizing Air Volume Flow Rate [m3/s], 0.61213
 Component Sizing Information, Coil:Heating:Water, COIL HEATING WATER 17, Maximum Water Flow Rate [m3/s], 4.41084E-004
 Component Sizing Information, Coil:Heating:Water, COIL HEATING WATER 17, Design Coil Load [W], 20303.24553
 Component Sizing Information, Coil:Heating:Water, COIL HEATING WATER 17, U-Factor Times Area Value [W/K], 425.22060
Water Heating Coil Capacity Information,Coil:Heating:Water,COIL HEATING WATER 17,19233.68
 Component Sizing Information, AirTerminal:SingleDuct:VAV:Reheat, AIR TERMINAL SINGLE DUCT VAV REHEAT 14, Maximum Air Flow Rate [m3/s], 0.66050
 Component Sizing Information, AirTerminal:SingleDuct:VAV:Reheat, AIR TERMINAL SINGLE DUCT VAV REHEAT 14, Maximum Flow per Zone Floor Area during Reheat [m3/s-m2], 1.77030E-004
 Component Sizing Information, AirTerminal:SingleDuct:VAV:Reheat, AIR TERMINAL SINGLE DUCT VAV REHEAT 14, Maximum Flow Fraction during Reheat [], 1.00000
 Component Sizing Information, AirTerminal:SingleDuct:VAV:Reheat, AIR TERMINAL SINGLE DUCT VAV REHEAT 14, Maximum Reheat Water Flow Rate [m3/s], 4.75943E-004
 Component Sizing Information, AirTerminal:SingleDuct:VAV:Reheat, AIR TERMINAL SINGLE DUCT VAV REHEAT 14, Reheat Coil Sizing Air Volume Flow Rate [m3/s], 0.66050
 Component Sizing Information, Coil:Heating:Water, COIL HEATING WATER 15, Maximum Water Flow Rate [m3/s], 4.75943E-004
 Component Sizing Information, Coil:Heating:Water, COIL HEATING WATER 15, Design Coil Load [W], 21907.78226
 Component Sizing Information, Coil:Heating:Water, COIL HEATING WATER 15, U-Factor Times Area Value [W/K], 458.82519
Water Heating Coil Capacity Information,Coil:Heating:Water,COIL HEATING WATER 15,20753.69
 Component Sizing Information, AirTerminal:SingleDuct:VAV:Reheat, AIR TERMINAL SINGLE DUCT VAV REHEAT 21, Maximum Air Flow Rate [m3/s], 0.73913
 Component Sizing Information, AirTerminal:SingleDuct:VAV:Reheat, AIR TERMINAL SINGLE DUCT VAV REHEAT 21, Maximum Flow per Zone Floor Area during Reheat [m3/s-m2], 2.03200E-003
 Component Sizing Information, AirTerminal:SingleDuct:VAV:Reheat, AIR TERMINAL SINGLE DUCT VAV REHEAT 21, Maximum Flow Fraction during Reheat [], 0.52852
 Component Sizing Information, AirTerminal:SingleDuct:VAV:Reheat, AIR TERMINAL SINGLE DUCT VAV REHEAT 21, Maximum Reheat Water Flow Rate [m3/s], 5.16779E-004
 Component Sizing Information, AirTerminal:SingleDuct:VAV:Reheat, AIR TERMINAL SINGLE DUCT VAV REHEAT 21, Reheat Coil Sizing Air Volume Flow Rate [m3/s], 0.71717
 Component Sizing Information, Coil:Heating:Water, COIL HEATING WATER 22, Maximum Water Flow Rate [m3/s], 5.16779E-004
 Component Sizing Information, Coil:Heating:Water, COIL HEATING WATER 22, Design Coil Load [W], 23787.47318
 Component Sizing Information, Coil:Heating:Water, COIL HEATING WATER 22, U-Factor Times Area Value [W/K], 513.44714
Water Heating Coil Capacity Information,Coil:Heating:Water,COIL HEATING WATER 22,23007.02
 Component Sizing Information, AirTerminal:SingleDuct:VAV:Reheat, AIR TERMINAL SINGLE DUCT VAV REHEAT 17, Maximum Air Flow Rate [m3/s], 0.66148
 Component Sizing Information, AirTerminal:SingleDuct:VAV:Reheat, AIR TERMINAL SINGLE DUCT VAV REHEAT 17, Maximum Flow per Zone Floor Area during Reheat [m3/s-m2], 2.03200E-003
 Component Sizing Information, AirTerminal:SingleDuct:VAV:Reheat, AIR TERMINAL SINGLE DUCT VAV REHEAT 17, Maximum Flow Fraction during Reheat [], 0.59056
 Component Sizing Information, AirTerminal:SingleDuct:VAV:Reheat, AIR TERMINAL SINGLE DUCT VAV REHEAT 17, Maximum Reheat Water Flow Rate [m3/s], 4.76648E-004
 Component Sizing Information, AirTerminal:SingleDuct:VAV:Reheat, AIR TERMINAL SINGLE DUCT VAV REHEAT 17, Reheat Coil Sizing Air Volume Flow Rate [m3/s], 0.66148
 Component Sizing Information, Coil:Heating:Water, COIL HEATING WATER 18, Maximum Water Flow Rate [m3/s], 4.76648E-004
 Component Sizing Information, Coil:Heating:Water, COIL HEATING WATER 18, Design Coil Load [W], 21940.24219
 Component Sizing Information, Coil:Heating:Water, COIL HEATING WATER 18, U-Factor Times Area Value [W/K], 459.50501
Water Heating Coil Capacity Information,Coil:Heating:Water,COIL HEATING WATER 18,20784.44
 Component Sizing Information, AirTerminal:SingleDuct:VAV:Reheat, AIR TERMINAL SINGLE DUCT VAV REHEAT 9, Maximum Air Flow Rate [m3/s], 0.72972
 Component Sizing Information, AirTerminal:SingleDuct:VAV:Reheat, AIR TERMINAL SINGLE DUCT VAV REHEAT 9, Maximum Flow per Zone Floor Area during Reheat [m3/s-m2], 2.03200E-003
 Component Sizing Information, AirTerminal:SingleDuct:VAV:Reheat, AIR TERMINAL SINGLE DUCT VAV REHEAT 9, Maximum Flow Fraction during Reheat [], 0.53533
 Component Sizing Information, AirTerminal:SingleDuct:VAV:Reheat, AIR TERMINAL SINGLE DUCT VAV REHEAT 9, Maximum Reheat Water Flow Rate [m3/s], 4.38240E-004
 Component Sizing Information, AirTerminal:SingleDuct:VAV:Reheat, AIR TERMINAL SINGLE DUCT VAV REHEAT 9, Reheat Coil Sizing Air Volume Flow Rate [m3/s], 0.60818
 Component Sizing Information, Coil:Heating:Water, COIL HEATING WATER 10, Maximum Water Flow Rate [m3/s], 4.38240E-004
 Component Sizing Information, Coil:Heating:Water, COIL HEATING WATER 10, Design Coil Load [W], 20172.31328
 Component Sizing Information, Coil:Heating:Water, COIL HEATING WATER 10, U-Factor Times Area Value [W/K], 506.90924
Water Heating Coil Capacity Information,Coil:Heating:Water,COIL HEATING WATER 10,21591.51
 Component Sizing Information, AirTerminal:SingleDuct:VAV:Reheat, AIR TERMINAL SINGLE DUCT VAV REHEAT 5, Maximum Air Flow Rate [m3/s], 0.85452
 Component Sizing Information, AirTerminal:SingleDuct:VAV:Reheat, AIR TERMINAL SINGLE DUCT VAV REHEAT 5, Maximum Flow per Zone Floor Area during Reheat [m3/s-m2], 2.03200E-003
 Component Sizing Information, AirTerminal:SingleDuct:VAV:Reheat, AIR TERMINAL SINGLE DUCT VAV REHEAT 5, Maximum Flow Fraction during Reheat [], 0.45715
 Component Sizing Information, AirTerminal:SingleDuct:VAV:Reheat, AIR TERMINAL SINGLE DUCT VAV REHEAT 5, Maximum Reheat Water Flow Rate [m3/s], 4.46002E-004
 Component Sizing Information, AirTerminal:SingleDuct:VAV:Reheat, AIR TERMINAL SINGLE DUCT VAV REHEAT 5, Reheat Coil Sizing Air Volume Flow Rate [m3/s], 0.61895
 Component Sizing Information, Coil:Heating:Water, COIL HEATING WATER 6, Maximum Water Flow Rate [m3/s], 4.46002E-004
 Component Sizing Information, Coil:Heating:Water, COIL HEATING WATER 6, Design Coil Load [W], 20529.60553
 Component Sizing Information, Coil:Heating:Water, COIL HEATING WATER 6, U-Factor Times Area Value [W/K], 593.60135
Water Heating Coil Capacity Information,Coil:Heating:Water,COIL HEATING WATER 6,24005.06
 Component Sizing Information, AirTerminal:SingleDuct:VAV:Reheat, AIR TERMINAL SINGLE DUCT VAV REHEAT 4, Maximum Air Flow Rate [m3/s], 0.66698
 Component Sizing Information, AirTerminal:SingleDuct:VAV:Reheat, AIR TERMINAL SINGLE DUCT VAV REHEAT 4, Maximum Flow per Zone Floor Area during Reheat [m3/s-m2], 2.03200E-003
 Component Sizing Information, AirTerminal:SingleDuct:VAV:Reheat, AIR TERMINAL SINGLE DUCT VAV REHEAT 4, Maximum Flow Fraction during Reheat [], 0.58569
 Component Sizing Information, AirTerminal:SingleDuct:VAV:Reheat, AIR TERMINAL SINGLE DUCT VAV REHEAT 4, Maximum Reheat Water Flow Rate [m3/s], 4.80609E-004
 Component Sizing Information, AirTerminal:SingleDuct:VAV:Reheat, AIR TERMINAL SINGLE DUCT VAV REHEAT 4, Reheat Coil Sizing Air Volume Flow Rate [m3/s], 0.66698
 Component Sizing Information, Coil:Heating:Water, COIL HEATING WATER 5, Maximum Water Flow Rate [m3/s], 4.80609E-004
 Component Sizing Information, Coil:Heating:Water, COIL HEATING WATER 5, Design Coil Load [W], 22122.58697
 Component Sizing Information, Coil:Heating:Water, COIL HEATING WATER 5, U-Factor Times Area Value [W/K], 463.32394
Water Heating Coil Capacity Information,Coil:Heating:Water,COIL HEATING WATER 5,20957.18
 Component Sizing Information, AirTerminal:SingleDuct:VAV:Reheat, AIR TERMINAL SINGLE DUCT VAV REHEAT 6, Maximum Air Flow Rate [m3/s], 0.77725
 Component Sizing Information, AirTerminal:SingleDuct:VAV:Reheat, AIR TERMINAL SINGLE DUCT VAV REHEAT 6, Maximum Flow per Zone Floor Area during Reheat [m3/s-m2], 2.03200E-003
 Component Sizing Information, AirTerminal:SingleDuct:VAV:Reheat, AIR TERMINAL SINGLE DUCT VAV REHEAT 6, Maximum Flow Fraction during Reheat [], 0.50260
 Component Sizing Information, AirTerminal:SingleDuct:VAV:Reheat, AIR TERMINAL SINGLE DUCT VAV REHEAT 6, Maximum Reheat Water Flow Rate [m3/s], 4.41119E-004
 Component Sizing Information, AirTerminal:SingleDuct:VAV:Reheat, AIR TERMINAL SINGLE DUCT VAV REHEAT 6, Reheat Coil Sizing Air Volume Flow Rate [m3/s], 0.61217
 Component Sizing Information, Coil:Heating:Water, COIL HEATING WATER 7, Maximum Water Flow Rate [m3/s], 4.41119E-004
 Component Sizing Information, Coil:Heating:Water, COIL HEATING WATER 7, Design Coil Load [W], 20304.84827
 Component Sizing Information, Coil:Heating:Water, COIL HEATING WATER 7, U-Factor Times Area Value [W/K], 539.92412
Water Heating Coil Capacity Information,Coil:Heating:Water,COIL HEATING WATER 7,22535.42
 Component Sizing Information, AirTerminal:SingleDuct:VAV:Reheat, AIR TERMINAL SINGLE DUCT VAV REHEAT 12, Maximum Air Flow Rate [m3/s], 0.62935
 Component Sizing Information, AirTerminal:SingleDuct:VAV:Reheat, AIR TERMINAL SINGLE DUCT VAV REHEAT 12, Maximum Flow per Zone Floor Area during Reheat [m3/s-m2], 2.03200E-003
 Component Sizing Information, AirTerminal:SingleDuct:VAV:Reheat, AIR TERMINAL SINGLE DUCT VAV REHEAT 12, Maximum Flow Fraction during Reheat [], 0.62071
 Component Sizing Information, AirTerminal:SingleDuct:VAV:Reheat, AIR TERMINAL SINGLE DUCT VAV REHEAT 12, Maximum Reheat Water Flow Rate [m3/s], 4.45961E-004
 Component Sizing Information, AirTerminal:SingleDuct:VAV:Reheat, AIR TERMINAL SINGLE DUCT VAV REHEAT 12, Reheat Coil Sizing Air Volume Flow Rate [m3/s], 0.61889
 Component Sizing Information, Coil:Heating:Water, COIL HEATING WATER 13, Maximum Water Flow Rate [m3/s], 4.45961E-004
 Component Sizing Information, Coil:Heating:Water, COIL HEATING WATER 13, Design Coil Load [W], 20527.73586
 Component Sizing Information, Coil:Heating:Water, COIL HEATING WATER 13, U-Factor Times Area Value [W/K], 437.18384
Water Heating Coil Capacity Information,Coil:Heating:Water,COIL HEATING WATER 13,19672.32
 Component Sizing Information, AirTerminal:SingleDuct:VAV:Reheat, AIR TERMINAL SINGLE DUCT VAV REHEAT 7, Maximum Air Flow Rate [m3/s], 0.66698
 Component Sizing Information, AirTerminal:SingleDuct:VAV:Reheat, AIR TERMINAL SINGLE DUCT VAV REHEAT 7, Maximum Flow per Zone Floor Area during Reheat [m3/s-m2], 2.03200E-003
 Component Sizing Information, AirTerminal:SingleDuct:VAV:Reheat, AIR TERMINAL SINGLE DUCT VAV REHEAT 7, Maximum Flow Fraction during Reheat [], 0.58569
 Component Sizing Information, AirTerminal:SingleDuct:VAV:Reheat, AIR TERMINAL SINGLE DUCT VAV REHEAT 7, Maximum Reheat Water Flow Rate [m3/s], 4.80609E-004
 Component Sizing Information, AirTerminal:SingleDuct:VAV:Reheat, AIR TERMINAL SINGLE DUCT VAV REHEAT 7, Reheat Coil Sizing Air Volume Flow Rate [m3/s], 0.66698
 Component Sizing Information, Coil:Heating:Water, COIL HEATING WATER 8, Maximum Water Flow Rate [m3/s], 4.80609E-004
 Component Sizing Information, Coil:Heating:Water, COIL HEATING WATER 8, Design Coil Load [W], 22122.58697
 Component Sizing Information, Coil:Heating:Water, COIL HEATING WATER 8, U-Factor Times Area Value [W/K], 463.32394
Water Heating Coil Capacity Information,Coil:Heating:Water,COIL HEATING WATER 8,20957.18
 Component Sizing Information, AirTerminal:SingleDuct:VAV:Reheat, AIR TERMINAL SINGLE DUCT VAV REHEAT 20, Maximum Air Flow Rate [m3/s], 0.64429
 Component Sizing Information, AirTerminal:SingleDuct:VAV:Reheat, AIR TERMINAL SINGLE DUCT VAV REHEAT 20, Maximum Flow per Zone Floor Area during Reheat [m3/s-m2], 1.72685E-004
 Component Sizing Information, AirTerminal:SingleDuct:VAV:Reheat, AIR TERMINAL SINGLE DUCT VAV REHEAT 20, Maximum Flow Fraction during Reheat [], 1.00000
 Component Sizing Information, AirTerminal:SingleDuct:VAV:Reheat, AIR TERMINAL SINGLE DUCT VAV REHEAT 20, Maximum Reheat Water Flow Rate [m3/s], 4.64263E-004
 Component Sizing Information, AirTerminal:SingleDuct:VAV:Reheat, AIR TERMINAL SINGLE DUCT VAV REHEAT 20, Reheat Coil Sizing Air Volume Flow Rate [m3/s], 0.64429
 Component Sizing Information, Coil:Heating:Water, COIL HEATING WATER 21, Maximum Water Flow Rate [m3/s], 4.64263E-004
 Component Sizing Information, Coil:Heating:Water, COIL HEATING WATER 21, Design Coil Load [W], 21370.15240
 Component Sizing Information, Coil:Heating:Water, COIL HEATING WATER 21, U-Factor Times Area Value [W/K], 447.56535
Water Heating Coil Capacity Information,Coil:Heating:Water,COIL HEATING WATER 21,20244.38
 Component Sizing Information, AirTerminal:SingleDuct:VAV:Reheat, AIR TERMINAL SINGLE DUCT VAV REHEAT 2, Maximum Air Flow Rate [m3/s], 0.72858
 Component Sizing Information, AirTerminal:SingleDuct:VAV:Reheat, AIR TERMINAL SINGLE DUCT VAV REHEAT 2, Maximum Flow per Zone Floor Area during Reheat [m3/s-m2], 2.03200E-003
 Component Sizing Information, AirTerminal:SingleDuct:VAV:Reheat, AIR TERMINAL SINGLE DUCT VAV REHEAT 2, Maximum Flow Fraction during Reheat [], 0.53617
 Component Sizing Information, AirTerminal:SingleDuct:VAV:Reheat, AIR TERMINAL SINGLE DUCT VAV REHEAT 2, Maximum Reheat Water Flow Rate [m3/s], 5.25002E-004
 Component Sizing Information, AirTerminal:SingleDuct:VAV:Reheat, AIR TERMINAL SINGLE DUCT VAV REHEAT 2, Reheat Coil Sizing Air Volume Flow Rate [m3/s], 0.72858
 Component Sizing Information, Coil:Heating:Water, COIL HEATING WATER 3, Maximum Water Flow Rate [m3/s], 5.25002E-004
 Component Sizing Information, Coil:Heating:Water, COIL HEATING WATER 3, Design Coil Load [W], 24165.98344
 Component Sizing Information, Coil:Heating:Water, COIL HEATING WATER 3, U-Factor Times Area Value [W/K], 506.11978
Water Heating Coil Capacity Information,Coil:Heating:Water,COIL HEATING WATER 3,22892.93
 Component Sizing Information, AirTerminal:SingleDuct:VAV:Reheat, AIR TERMINAL SINGLE DUCT VAV REHEAT 8, Maximum Air Flow Rate [m3/s], 0.61889
 Component Sizing Information, AirTerminal:SingleDuct:VAV:Reheat, AIR TERMINAL SINGLE DUCT VAV REHEAT 8, Maximum Flow per Zone Floor Area during Reheat [m3/s-m2], 2.03200E-003
 Component Sizing Information, AirTerminal:SingleDuct:VAV:Reheat, AIR TERMINAL SINGLE DUCT VAV REHEAT 8, Maximum Flow Fraction during Reheat [], 0.63120
 Component Sizing Information, AirTerminal:SingleDuct:VAV:Reheat, AIR TERMINAL SINGLE DUCT VAV REHEAT 8, Maximum Reheat Water Flow Rate [m3/s], 4.45961E-004
 Component Sizing Information, AirTerminal:SingleDuct:VAV:Reheat, AIR TERMINAL SINGLE DUCT VAV REHEAT 8, Reheat Coil Sizing Air Volume Flow Rate [m3/s], 0.61889
 Component Sizing Information, Coil:Heating:Water, COIL HEATING WATER 9, Maximum Water Flow Rate [m3/s], 4.45961E-004
 Component Sizing Information, Coil:Heating:Water, COIL HEATING WATER 9, Design Coil Load [W], 20527.73586
 Component Sizing Information, Coil:Heating:Water, COIL HEATING WATER 9, U-Factor Times Area Value [W/K], 429.92221
Water Heating Coil Capacity Information,Coil:Heating:Water,COIL HEATING WATER 9,19446.34
 Component Sizing Information, AirTerminal:SingleDuct:VAV:Reheat, AIR TERMINAL SINGLE DUCT VAV REHEAT 19, Maximum Air Flow Rate [m3/s], 0.88045
 Component Sizing Information, AirTerminal:SingleDuct:VAV:Reheat, AIR TERMINAL SINGLE DUCT VAV REHEAT 19, Maximum Flow per Zone Floor Area during Reheat [m3/s-m2], 2.03200E-003
 Component Sizing Information, AirTerminal:SingleDuct:VAV:Reheat, AIR TERMINAL SINGLE DUCT VAV REHEAT 19, Maximum Flow Fraction during Reheat [], 0.44369
 Component Sizing Information, AirTerminal:SingleDuct:VAV:Reheat, AIR TERMINAL SINGLE DUCT VAV REHEAT 19, Maximum Reheat Water Flow Rate [m3/s], 5.25043E-004
 Component Sizing Information, AirTerminal:SingleDuct:VAV:Reheat, AIR TERMINAL SINGLE DUCT VAV REHEAT 19, Reheat Coil Sizing Air Volume Flow Rate [m3/s], 0.72864
 Component Sizing Information, Coil:Heating:Water, COIL HEATING WATER 20, Maximum Water Flow Rate [m3/s], 5.25043E-004
 Component Sizing Information, Coil:Heating:Water, COIL HEATING WATER 20, Design Coil Load [W], 24167.89016
 Component Sizing Information, Coil:Heating:Water, COIL HEATING WATER 20, U-Factor Times Area Value [W/K], 611.61785
Water Heating Coil Capacity Information,Coil:Heating:Water,COIL HEATING WATER 20,25986.67
 Component Sizing Information, AirTerminal:SingleDuct:VAV:Reheat, AIR TERMINAL SINGLE DUCT VAV REHEAT 11, Maximum Air Flow Rate [m3/s], 0.64294
 Component Sizing Information, AirTerminal:SingleDuct:VAV:Reheat, AIR TERMINAL SINGLE DUCT VAV REHEAT 11, Maximum Flow per Zone Floor Area during Reheat [m3/s-m2], 2.03200E-003
 Component Sizing Information, AirTerminal:SingleDuct:VAV:Reheat, AIR TERMINAL SINGLE DUCT VAV REHEAT 11, Maximum Flow Fraction during Reheat [], 0.60759
 Component Sizing Information, AirTerminal:SingleDuct:VAV:Reheat, AIR TERMINAL SINGLE DUCT VAV REHEAT 11, Maximum Reheat Water Flow Rate [m3/s], 4.34442E-004
 Component Sizing Information, AirTerminal:SingleDuct:VAV:Reheat, AIR TERMINAL SINGLE DUCT VAV REHEAT 11, Reheat Coil Sizing Air Volume Flow Rate [m3/s], 0.60291
 Component Sizing Information, Coil:Heating:Water, COIL HEATING WATER 12, Maximum Water Flow Rate [m3/s], 4.34442E-004
 Component Sizing Information, Coil:Heating:Water, COIL HEATING WATER 12, Design Coil Load [W], 19997.51572
 Component Sizing Information, Coil:Heating:Water, COIL HEATING WATER 12, U-Factor Times Area Value [W/K], 446.62686
Water Heating Coil Capacity Information,Coil:Heating:Water,COIL HEATING WATER 12,19796.03
 Component Sizing Information, Branch, BRANCH {C7102C85-3605-489C-B462-77B0B90D3970}, Maximum Flow Rate [m3/s], 16.14301
 Component Sizing Information, AirLoopHVAC, AIR LOOP HVAC 1, Design Supply Air Flow Rate [m3/s], 16.14301
 Component Sizing Information, Controller:OutdoorAir, CONTROLLER OUTDOOR AIR 1, Maximum Outdoor Air Flow Rate [m3/s], 16.14301
 Component Sizing Information, Controller:OutdoorAir, CONTROLLER OUTDOOR AIR 1, Minimum Outdoor Air Flow Rate [m3/s], 0.00000
 Component Sizing Information, Coil:Cooling:DX:TwoSpeed, COIL COOLING DX TWO SPEED 1, Rated High Speed Air Flow Rate [m3/s], 16.14301
 Component Sizing Information, Coil:Cooling:DX:TwoSpeed, COIL COOLING DX TWO SPEED 1, Rated High Speed Total Cooling Capacity (gross) [W], 400869.37025
 Component Sizing Information, Coil:Cooling:DX:TwoSpeed, COIL COOLING DX TWO SPEED 1, Rated High Speed Sensible Heat Ratio, 0.67608
 Component Sizing Information, Coil:Cooling:DX:TwoSpeed, COIL COOLING DX TWO SPEED 1, Rated Low Speed Air Flow Rate [m3/s], 5.38047
 Component Sizing Information, Coil:Cooling:DX:TwoSpeed, COIL COOLING DX TWO SPEED 1, Rated Low Speed Total Cooling Capacity (gross) [W], 133609.76111
! <VAV DX Cooling Coil Standard Rating Information>, DX Coil Type, DX Coil Name, Fan Type, Fan Name, Standard Net Cooling Capacity {W}, Standard Net Cooling Capacity {Btu/h}, IEER {Btu/W-h}, COP 100% Capacity {W/W}, COP 75% Capacity {W/W}, COP 50% Capacity {W/W}, COP 25% Capacity {W/W}, EER 100% Capacity {Btu/W-h}, EER 75% Capacity {Btu/W-h}, EER 50% Capacity {Btu/W-h}, EER 25% Capacity {Btu/W-h}, Supply Air Flow 100% {kg/s}, Supply Air Flow 75% {kg/s},Supply Air Flow 50% {kg/s},Supply Air Flow 25% {kg/s}
 VAV DX Cooling Coil Standard Rating Information, Coil:Cooling:DX:TwoSpeed,COIL COOLING DX TWO SPEED 1,N/A,N/A,389064.85,1327544.37,25.83,4.59,6.18,8.70,12.79,15.66,21.07,29.68,43.64,18.2308,14.6067,10.0550,5.1617,
 Component Sizing Information, Coil:Heating:Water, COIL HEATING WATER 1, Maximum Water Flow Rate [m3/s], 4.07761E-003
 Component Sizing Information, Coil:Heating:Water, COIL HEATING WATER 1, Design Coil Load [W], 187693.52138
 Component Sizing Information, Coil:Heating:Water, COIL HEATING WATER 1, U-Factor Times Area Value [W/K], 2414.14454
Water Heating Coil Capacity Information,Coil:Heating:Water,COIL HEATING WATER 1,135197.49
 Component Sizing Information, Fan:VariableVolume, FAN VARIABLE VOLUME 1, Maximum Flow Rate [m3/s], 16.14301
 Component Sizing Information, Controller:WaterCoil, CONTROLLER WATER COIL 1, Maximum Actuated Flow [m3/s], 4.07761E-003
 Component Sizing Information, Controller:WaterCoil, CONTROLLER WATER COIL 1, Controller Convergence Tolerance, 1.16782E-004
 Component Sizing Information, Boiler:HotWater, BOILER HOT WATER 1, Nominal Capacity [W], 725930.91161
 Component Sizing Information, Boiler:HotWater, BOILER HOT WATER 1, Design Water Flow Rate [m3/s], 1.57099E-002
 Component Sizing Information, PlantLoop, PLANT LOOP 1, Maximum Loop Flow Rate [m3/s], 1.57099E-002
 Component Sizing Information, PlantLoop, PLANT LOOP 1, Plant Loop Volume [m3], 17.67364
 Component Sizing Information, Pump:VariableSpeed, PUMP VARIABLE SPEED 1, Rated Flow Rate [m3/s], 1.57099E-002
 Component Sizing Information, Pump:VariableSpeed, PUMP VARIABLE SPEED 1, Rated Power Consumption [W], 4013.67922
! <Environment>,Environment Name,Environment Type, Start Date, End Date, Start DayOfWeek, Duration {#days}, Source:Start DayOfWeek,  Use Daylight Saving, Use Holidays, Apply Weekend Holiday Rule,  Use Rain Values, Use Snow Values
! <Environment:Special Days>, Special Day Name, Special Day Type, Source, Start Date, Duration {#days}
! <Environment:Daylight Saving>, Daylight Saving Indicator, Source, Start Date, End Date
! <Environment:WarmupDays>, NumberofWarmupDays
Environment,CHICAGO OHARE INTL AP ANN CLG 1% CONDNS DP=>MDB,SizingPeriod:DesignDay,07/21,07/21,SummerDesignDay,1,N/A,N/A,N/A,N/A,N/A,N/A
Environment:Daylight Saving,No,SizingPeriod:DesignDay
! <Environment:Design Day Data>, Max Dry-Bulb Temp {C}, Temp Range {dC}, Temp Range Ind Type, Hum Ind Value at Max Temp, Hum Ind Type,Pressure {Pa}, Wind Direction {deg CW from N}, Wind Speed {m/s}, Clearness, Rain, Snow
! <Environment:Design_Day_Misc>,DayOfYear,ASHRAE A Coeff,ASHRAE B Coeff,ASHRAE C Coeff,Solar Constant-Annual Variation,Eq of Time {minutes}, Solar Declination Angle {deg}, Solar Model
Environment:Design Day Data,27.70,10.50,DefaultMultipliers,98934,230,5.2,0.00,No ,No 
Environment:Design_Day_Misc,202,1084.4,0.2082,0.1365,1.0,-6.23,20.6,ASHRAETau
Environment:WarmupDays,  6
! <Warmup Convergence Information>,Zone Name,Environment Type/Name,Average Warmup Temperature Difference {deltaC},Std Dev Warmup Temperature Difference {deltaC},Max Temperature Pass/Fail Convergence,Min Temperature Pass/Fail Convergence,Average Warmup Load Difference {W},Std Dev Warmup Load Difference {W},Heating Load Pass/Fail Convergence,Cooling Load Pass/Fail Convergence
 Warmup Convergence Information,THERMAL ZONE 1,SizingPeriod: CHICAGO OHARE INTL AP ANN CLG 1% CONDNS DP=>MDB,6.6520874707E-003,4.8283861329E-003,Pass,Pass,1.3846251199E-003,1.3899460509E-003,Pass,Pass
 Warmup Convergence Information,THERMAL ZONE 4,SizingPeriod: CHICAGO OHARE INTL AP ANN CLG 1% CONDNS DP=>MDB,1.1228541735E-002,2.9182833327E-002,Pass,Pass,0.7680414453,5.4748774696,Pass,Pass
 Warmup Convergence Information,THERMAL ZONE 18,SizingPeriod: CHICAGO OHARE INTL AP ANN CLG 1% CONDNS DP=>MDB,1.1458664487E-002,3.0680841191E-002,Pass,Pass,0.1830934515,0.5752863626,Pass,Pass
 Warmup Convergence Information,THERMAL ZONE 2,SizingPeriod: CHICAGO OHARE INTL AP ANN CLG 1% CONDNS DP=>MDB,8.4045559721E-002,0.1780410945,Pass,Pass,0.2781708549,0.7752022586,Pass,Pass
 Warmup Convergence Information,THERMAL ZONE 5,SizingPeriod: CHICAGO OHARE INTL AP ANN CLG 1% CONDNS DP=>MDB,1.4322917875E-004,1.3332587901E-004,Pass,Pass,2.3694990206E-002,1.2727514155E-002,Pass,Pass
 Warmup Convergence Information,THERMAL ZONE 17,SizingPeriod: CHICAGO OHARE INTL AP ANN CLG 1% CONDNS DP=>MDB,8.3708923878E-002,0.1023292948,Pass,Pass,0.1993284074,0.5392526569,Pass,Pass
 Warmup Convergence Information,THERMAL ZONE 13,SizingPeriod: CHICAGO OHARE INTL AP ANN CLG 1% CONDNS DP=>MDB,4.9044350253E-003,4.5487312590E-003,Pass,Pass,1.3694736805E-002,2.1045878265E-002,Pass,Pass
 Warmup Convergence Information,THERMAL ZONE 8,SizingPeriod: CHICAGO OHARE INTL AP ANN CLG 1% CONDNS DP=>MDB,8.3605633974E-002,0.1110126251,Pass,Pass,0.3083887903,1.9863829266,Pass,Pass
 Warmup Convergence Information,THERMAL ZONE 10,SizingPeriod: CHICAGO OHARE INTL AP ANN CLG 1% CONDNS DP=>MDB,7.8205296305E-002,0.1362259996,Pass,Pass,0.1783401486,0.4913838821,Pass,Pass
 Warmup Convergence Information,THERMAL ZONE 3,SizingPeriod: CHICAGO OHARE INTL AP ANN CLG 1% CONDNS DP=>MDB,8.3630438744E-002,0.1152244200,Pass,Pass,0.1970894838,0.7347665236,Pass,Pass
 Warmup Convergence Information,THERMAL ZONE 11,SizingPeriod: CHICAGO OHARE INTL AP ANN CLG 1% CONDNS DP=>MDB,8.3715843172E-002,0.1242857936,Pass,Pass,5.3105349883E-002,4.0539167255E-002,Pass,Pass
 Warmup Convergence Information,THERMAL ZONE 15,SizingPeriod: CHICAGO OHARE INTL AP ANN CLG 1% CONDNS DP=>MDB,1.0259026805E-003,9.4479409495E-004,Pass,Pass,0.1900646914,0.3429302681,Pass,Pass
 Warmup Convergence Information,THERMAL ZONE 7,SizingPeriod: CHICAGO OHARE INTL AP ANN CLG 1% CONDNS DP=>MDB,8.3798363445E-002,0.1255414076,Pass,Pass,7.3510548734E-002,6.0455012628E-002,Pass,Pass
 Warmup Convergence Information,THERMAL ZONE 6,SizingPeriod: CHICAGO OHARE INTL AP ANN CLG 1% CONDNS DP=>MDB,8.3581321110E-002,0.1015663710,Pass,Pass,8.3669227337E-002,0.1001478522,Pass,Pass
 Warmup Convergence Information,THERMAL ZONE 16,SizingPeriod: CHICAGO OHARE INTL AP ANN CLG 1% CONDNS DP=>MDB,5.5199777931E-002,0.1011003634,Pass,Pass,0.4523855933,2.4725506845,Pass,Pass
 Warmup Convergence Information,THERMAL ZONE 20,SizingPeriod: CHICAGO OHARE INTL AP ANN CLG 1% CONDNS DP=>MDB,6.4800555244E-005,5.8762547416E-005,Pass,Pass,0.2084434713,0.5410567889,Pass,Pass
 Warmup Convergence Information,THERMAL ZONE 14,SizingPeriod: CHICAGO OHARE INTL AP ANN CLG 1% CONDNS DP=>MDB,8.3671862647E-002,9.6049394490E-002,Pass,Pass,8.7677698580E-002,0.1101125088,Pass,Pass
 Warmup Convergence Information,THERMAL ZONE 19,SizingPeriod: CHICAGO OHARE INTL AP ANN CLG 1% CONDNS DP=>MDB,1.6018117849E-002,3.5453672422E-002,Pass,Pass,0.1625842121,0.3937658196,Pass,Pass
 Warmup Convergence Information,THERMAL ZONE 12,SizingPeriod: CHICAGO OHARE INTL AP ANN CLG 1% CONDNS DP=>MDB,8.3687882029E-002,0.1248964302,Pass,Pass,5.6453691185E-002,4.1117715235E-002,Pass,Pass
 Warmup Convergence Information,THERMAL ZONE 9,SizingPeriod: CHICAGO OHARE INTL AP ANN CLG 1% CONDNS DP=>MDB,8.3576710938E-002,0.1181804171,Pass,Pass,0.3344204724,2.1121337650,Pass,Pass
Environment,CHICAGO OHARE INTL AP ANN HTG WIND 99.6% CONDNS WS=>MCDB,SizingPeriod:DesignDay,01/21,01/21,WinterDesignDay,1,N/A,N/A,N/A,N/A,N/A,N/A
Environment:Daylight Saving,No,SizingPeriod:DesignDay
Environment:Design Day Data,-3.50,0.00,DefaultMultipliers,98934,270,12.4,0.00,No ,No 
Environment:Design_Day_Misc, 21,1229.0,0.1415,5.7310E-002,1.0,-11.15,-20.1,ASHRAEClearSky
Environment:WarmupDays,  6
 Warmup Convergence Information,THERMAL ZONE 1,SizingPeriod: CHICAGO OHARE INTL AP ANN HTG WIND 99.6% CONDNS WS=>MCDB,1.2674529582E-005,4.2390678256E-006,Pass,Pass,6.6167210665E-005,1.4526279706E-005,Pass,Pass
 Warmup Convergence Information,THERMAL ZONE 4,SizingPeriod: CHICAGO OHARE INTL AP ANN HTG WIND 99.6% CONDNS WS=>MCDB,5.0095570580E-005,1.4427655658E-005,Pass,Pass,6.3239685590E-005,1.3598690433E-005,Pass,Pass
 Warmup Convergence Information,THERMAL ZONE 18,SizingPeriod: CHICAGO OHARE INTL AP ANN HTG WIND 99.6% CONDNS WS=>MCDB,2.5047515657E-003,3.0141530575E-003,Pass,Pass,1.9597571924E-003,2.5600088145E-003,Pass,Pass
 Warmup Convergence Information,THERMAL ZONE 2,SizingPeriod: CHICAGO OHARE INTL AP ANN HTG WIND 99.6% CONDNS WS=>MCDB,5.8769238907E-005,1.6730159092E-005,Pass,Pass,6.2783999701E-005,1.3441678041E-005,Pass,Pass
 Warmup Convergence Information,THERMAL ZONE 5,SizingPeriod: CHICAGO OHARE INTL AP ANN HTG WIND 99.6% CONDNS WS=>MCDB,1.0529168630E-003,3.4210523104E-006,Pass,Pass,6.6589302571E-003,2.7192433245E-005,Pass,Pass
 Warmup Convergence Information,THERMAL ZONE 17,SizingPeriod: CHICAGO OHARE INTL AP ANN HTG WIND 99.6% CONDNS WS=>MCDB,5.0096319749E-005,1.4428645143E-005,Pass,Pass,6.3240222495E-005,1.3598852003E-005,Pass,Pass
 Warmup Convergence Information,THERMAL ZONE 13,SizingPeriod: CHICAGO OHARE INTL AP ANN HTG WIND 99.6% CONDNS WS=>MCDB,5.0207193058E-006,4.0035918991E-006,Pass,Pass,7.1128259147E-005,1.5622508264E-005,Pass,Pass
 Warmup Convergence Information,THERMAL ZONE 8,SizingPeriod: CHICAGO OHARE INTL AP ANN HTG WIND 99.6% CONDNS WS=>MCDB,5.4614727850E-005,1.5693559958E-005,Pass,Pass,6.1582793084E-005,1.3256871162E-005,Pass,Pass
 Warmup Convergence Information,THERMAL ZONE 10,SizingPeriod: CHICAGO OHARE INTL AP ANN HTG WIND 99.6% CONDNS WS=>MCDB,4.4809488638E-003,1.0508803209E-003,Pass,Pass,4.2077531335E-003,1.2064639077E-003,Pass,Pass
 Warmup Convergence Information,THERMAL ZONE 3,SizingPeriod: CHICAGO OHARE INTL AP ANN HTG WIND 99.6% CONDNS WS=>MCDB,4.0935041202E-003,1.9958637843E-003,Pass,Pass,3.1177281220E-003,2.1946728218E-003,Pass,Pass
 Warmup Convergence Information,THERMAL ZONE 11,SizingPeriod: CHICAGO OHARE INTL AP ANN HTG WIND 99.6% CONDNS WS=>MCDB,4.3679192229E-005,1.3092605738E-005,Pass,Pass,5.5632934548E-005,1.2177834874E-005,Pass,Pass
 Warmup Convergence Information,THERMAL ZONE 15,SizingPeriod: CHICAGO OHARE INTL AP ANN HTG WIND 99.6% CONDNS WS=>MCDB,5.8762888558E-005,1.6735114956E-005,Pass,Pass,6.2782258679E-005,1.3440697650E-005,Pass,Pass
 Warmup Convergence Information,THERMAL ZONE 7,SizingPeriod: CHICAGO OHARE INTL AP ANN HTG WIND 99.6% CONDNS WS=>MCDB,4.3609831684E-003,1.3507989746E-005,Pass,Pass,5.4945416755E-003,1.9705205361E-005,Pass,Pass
 Warmup Convergence Information,THERMAL ZONE 6,SizingPeriod: CHICAGO OHARE INTL AP ANN HTG WIND 99.6% CONDNS WS=>MCDB,4.9145203711E-005,1.4217693739E-005,Pass,Pass,6.2627032496E-005,1.3490818742E-005,Pass,Pass
 Warmup Convergence Information,THERMAL ZONE 16,SizingPeriod: CHICAGO OHARE INTL AP ANN HTG WIND 99.6% CONDNS WS=>MCDB,5.8762952052E-005,1.6735153937E-005,Pass,Pass,6.2782297053E-005,1.3440707628E-005,Pass,Pass
 Warmup Convergence Information,THERMAL ZONE 20,SizingPeriod: CHICAGO OHARE INTL AP ANN HTG WIND 99.6% CONDNS WS=>MCDB,5.4345280821E-006,4.0391576244E-006,Pass,Pass,6.9286751113E-005,1.5218764211E-005,Pass,Pass
 Warmup Convergence Information,THERMAL ZONE 14,SizingPeriod: CHICAGO OHARE INTL AP ANN HTG WIND 99.6% CONDNS WS=>MCDB,2.5038470351E-003,3.0135872855E-003,Pass,Pass,1.9583528237E-003,2.5594010821E-003,Pass,Pass
 Warmup Convergence Information,THERMAL ZONE 19,SizingPeriod: CHICAGO OHARE INTL AP ANN HTG WIND 99.6% CONDNS WS=>MCDB,4.9515109274E-005,1.4270408795E-005,Pass,Pass,6.3096294183E-005,1.3573928790E-005,Pass,Pass
 Warmup Convergence Information,THERMAL ZONE 12,SizingPeriod: CHICAGO OHARE INTL AP ANN HTG WIND 99.6% CONDNS WS=>MCDB,5.2193592337E-005,1.5217175028E-005,Pass,Pass,5.7769447028E-005,1.2556686470E-005,Pass,Pass
 Warmup Convergence Information,THERMAL ZONE 9,SizingPeriod: CHICAGO OHARE INTL AP ANN HTG WIND 99.6% CONDNS WS=>MCDB,4.7750409036E-005,1.3868648030E-005,Pass,Pass,6.1497858650E-005,1.3284945150E-005,Pass,Pass
Environment,CHICAGO OHARE INTL AP ANN CLG 1% CONDNS DB=>MWB,SizingPeriod:DesignDay,07/21,07/21,SummerDesignDay,1,N/A,N/A,N/A,N/A,N/A,N/A
Environment:Daylight Saving,No,SizingPeriod:DesignDay
Environment:Design Day Data,31.60,10.50,DefaultMultipliers,98934,230,5.2,0.00,No ,No 
Environment:Design_Day_Misc,202,1084.4,0.2082,0.1365,1.0,-6.23,20.6,ASHRAETau
Environment:WarmupDays,  6
 Warmup Convergence Information,THERMAL ZONE 1,SizingPeriod: CHICAGO OHARE INTL AP ANN CLG 1% CONDNS DB=>MWB,5.6302988101E-003,4.6604127960E-003,Pass,Pass,2.2774625805E-003,2.5317852168E-003,Pass,Pass
 Warmup Convergence Information,THERMAL ZONE 4,SizingPeriod: CHICAGO OHARE INTL AP ANN CLG 1% CONDNS DB=>MWB,2.5020228560E-002,4.3241814035E-002,Pass,Pass,0.1490162951,0.4544686645,Pass,Pass
 Warmup Convergence Information,THERMAL ZONE 18,SizingPeriod: CHICAGO OHARE INTL AP ANN CLG 1% CONDNS DB=>MWB,2.8157611510E-002,4.2043206731E-002,Pass,Pass,3.8591481057E-002,4.3455714359E-002,Pass,Pass
 Warmup Convergence Information,THERMAL ZONE 2,SizingPeriod: CHICAGO OHARE INTL AP ANN CLG 1% CONDNS DB=>MWB,8.4253572104E-002,0.1797785116,Pass,Pass,0.2221683063,0.4266230254,Pass,Pass
 Warmup Convergence Information,THERMAL ZONE 5,SizingPeriod: CHICAGO OHARE INTL AP ANN CLG 1% CONDNS DB=>MWB,8.1509639717E-003,8.5899428755E-003,Pass,Pass,6.8401610974E-003,9.9566275899E-003,Pass,Pass
 Warmup Convergence Information,THERMAL ZONE 17,SizingPeriod: CHICAGO OHARE INTL AP ANN CLG 1% CONDNS DB=>MWB,8.3561907847E-002,0.1036777478,Pass,Pass,5.0341020878E-002,4.4259262866E-002,Pass,Pass
 Warmup Convergence Information,THERMAL ZONE 13,SizingPeriod: CHICAGO OHARE INTL AP ANN CLG 1% CONDNS DB=>MWB,7.6788348568E-003,2.9979858145E-003,Pass,Pass,6.7283460126E-004,2.4822957154E-004,Pass,Pass
 Warmup Convergence Information,THERMAL ZONE 8,SizingPeriod: CHICAGO OHARE INTL AP ANN CLG 1% CONDNS DB=>MWB,8.3506417975E-002,0.1161559283,Pass,Pass,3.8709024948E-002,4.4321548210E-002,Pass,Pass
 Warmup Convergence Information,THERMAL ZONE 10,SizingPeriod: CHICAGO OHARE INTL AP ANN CLG 1% CONDNS DB=>MWB,8.4027303363E-002,0.1414869760,Pass,Pass,0.6920284820,4.1954391305,Pass,Pass
 Warmup Convergence Information,THERMAL ZONE 3,SizingPeriod: CHICAGO OHARE INTL AP ANN CLG 1% CONDNS DB=>MWB,8.3551571381E-002,0.1193610645,Pass,Pass,4.2489123501E-002,4.6112285825E-002,Pass,Pass
 Warmup Convergence Information,THERMAL ZONE 11,SizingPeriod: CHICAGO OHARE INTL AP ANN CLG 1% CONDNS DB=>MWB,8.3536063446E-002,0.1187035336,Pass,Pass,3.7149972382E-002,3.5823596483E-002,Pass,Pass
 Warmup Convergence Information,THERMAL ZONE 15,SizingPeriod: CHICAGO OHARE INTL AP ANN CLG 1% CONDNS DB=>MWB,9.6950332933E-004,8.3369432651E-004,Pass,Pass,0.5442860573,2.5811169604,Pass,Pass
 Warmup Convergence Information,THERMAL ZONE 7,SizingPeriod: CHICAGO OHARE INTL AP ANN CLG 1% CONDNS DB=>MWB,8.3633332244E-002,0.1215150771,Pass,Pass,4.4821068583E-002,3.9077717088E-002,Pass,Pass
 Warmup Convergence Information,THERMAL ZONE 6,SizingPeriod: CHICAGO OHARE INTL AP ANN CLG 1% CONDNS DB=>MWB,8.3451251989E-002,0.1016449062,Pass,Pass,3.7197755930E-002,3.3299837981E-002,Pass,Pass
 Warmup Convergence Information,THERMAL ZONE 16,SizingPeriod: CHICAGO OHARE INTL AP ANN CLG 1% CONDNS DB=>MWB,6.6956018015E-002,0.1097929358,Pass,Pass,0.4301560891,2.6340454097,Pass,Pass
 Warmup Convergence Information,THERMAL ZONE 20,SizingPeriod: CHICAGO OHARE INTL AP ANN CLG 1% CONDNS DB=>MWB,5.5863745372E-005,5.5326452701E-005,Pass,Pass,0.2671405558,0.8585226730,Pass,Pass
 Warmup Convergence Information,THERMAL ZONE 14,SizingPeriod: CHICAGO OHARE INTL AP ANN CLG 1% CONDNS DB=>MWB,8.3538950829E-002,9.6607839761E-002,Pass,Pass,3.5134219618E-002,3.1863630018E-002,Pass,Pass
 Warmup Convergence Information,THERMAL ZONE 19,SizingPeriod: CHICAGO OHARE INTL AP ANN CLG 1% CONDNS DB=>MWB,3.1555480064E-002,4.4614334819E-002,Pass,Pass,4.4336428635E-002,5.3610420007E-002,Pass,Pass
 Warmup Convergence Information,THERMAL ZONE 12,SizingPeriod: CHICAGO OHARE INTL AP ANN CLG 1% CONDNS DB=>MWB,8.3548192512E-002,0.1186814822,Pass,Pass,3.7048576236E-002,3.5340392548E-002,Pass,Pass
 Warmup Convergence Information,THERMAL ZONE 9,SizingPeriod: CHICAGO OHARE INTL AP ANN CLG 1% CONDNS DB=>MWB,8.3480364867E-002,0.1230273505,Pass,Pass,5.6528836536E-002,6.2302505291E-002,Pass,Pass
Environment,CHICAGO OHARE INTL AP ANN HTG 99.6% CONDNS DB,SizingPeriod:DesignDay,01/21,01/21,WinterDesignDay,1,N/A,N/A,N/A,N/A,N/A,N/A
Environment:Daylight Saving,No,SizingPeriod:DesignDay
Environment:Design Day Data,-20.00,0.00,DefaultMultipliers,98934,270,4.9,0.00,No ,No 
Environment:Design_Day_Misc, 21,1229.0,0.1415,5.7310E-002,1.0,-11.15,-20.1,ASHRAEClearSky
Environment:WarmupDays,  6
 Warmup Convergence Information,THERMAL ZONE 1,SizingPeriod: CHICAGO OHARE INTL AP ANN HTG 99.6% CONDNS DB,7.0137919335E-005,1.2415848074E-005,Pass,Pass,1.4097836747E-005,7.7282899499E-006,Pass,Pass
 Warmup Convergence Information,THERMAL ZONE 4,SizingPeriod: CHICAGO OHARE INTL AP ANN HTG 99.6% CONDNS DB,7.8860968295E-005,2.4147285039E-005,Pass,Pass,1.7080075916E-005,8.6231655705E-006,Pass,Pass
 Warmup Convergence Information,THERMAL ZONE 18,SizingPeriod: CHICAGO OHARE INTL AP ANN HTG 99.6% CONDNS DB,8.6212947433E-005,2.8407452224E-005,Pass,Pass,1.7546634771E-005,9.0595043207E-006,Pass,Pass
 Warmup Convergence Information,THERMAL ZONE 2,SizingPeriod: CHICAGO OHARE INTL AP ANN HTG 99.6% CONDNS DB,2.2423675610E-005,1.8738759867E-005,Pass,Pass,1.5103716038E-005,5.9325588740E-006,Pass,Pass
 Warmup Convergence Information,THERMAL ZONE 5,SizingPeriod: CHICAGO OHARE INTL AP ANN HTG 99.6% CONDNS DB,2.5727025447E-004,4.2918382817E-005,Pass,Pass,2.1339558572E-005,1.8392077387E-005,Pass,Pass
 Warmup Convergence Information,THERMAL ZONE 17,SizingPeriod: CHICAGO OHARE INTL AP ANN HTG 99.6% CONDNS DB,7.8750397729E-005,2.4083346030E-005,Pass,Pass,1.7038856772E-005,8.6101924040E-006,Pass,Pass
 Warmup Convergence Information,THERMAL ZONE 13,SizingPeriod: CHICAGO OHARE INTL AP ANN HTG 99.6% CONDNS DB,3.1608580077E-004,5.3135747252E-005,Pass,Pass,2.5897588004E-005,1.8500285695E-005,Pass,Pass
 Warmup Convergence Information,THERMAL ZONE 8,SizingPeriod: CHICAGO OHARE INTL AP ANN HTG 99.6% CONDNS DB,8.4968479616E-005,2.6608938202E-005,Pass,Pass,1.5976768078E-005,8.6809705441E-006,Pass,Pass
 Warmup Convergence Information,THERMAL ZONE 10,SizingPeriod: CHICAGO OHARE INTL AP ANN HTG 99.6% CONDNS DB,2.4560852732E-005,1.9343840291E-005,Pass,Pass,1.5417204683E-005,6.0907594358E-006,Pass,Pass
 Warmup Convergence Information,THERMAL ZONE 3,SizingPeriod: CHICAGO OHARE INTL AP ANN HTG 99.6% CONDNS DB,9.4799740926E-005,1.9783412394E-005,Pass,Pass,8.9666215366E-006,8.0169499943E-006,Pass,Pass
 Warmup Convergence Information,THERMAL ZONE 11,SizingPeriod: CHICAGO OHARE INTL AP ANN HTG 99.6% CONDNS DB,4.4612101002E-003,1.8262813514E-003,Pass,Pass,3.5260275189E-003,1.3255779840E-003,Pass,Pass
 Warmup Convergence Information,THERMAL ZONE 15,SizingPeriod: CHICAGO OHARE INTL AP ANN HTG 99.6% CONDNS DB,2.4633199698E-005,1.9728866776E-005,Pass,Pass,1.5579989857E-005,6.1492039877E-006,Pass,Pass
 Warmup Convergence Information,THERMAL ZONE 7,SizingPeriod: CHICAGO OHARE INTL AP ANN HTG 99.6% CONDNS DB,5.8138022379E-005,1.1712082694E-005,Pass,Pass,5.1382080709E-006,4.1998850649E-006,Pass,Pass
 Warmup Convergence Information,THERMAL ZONE 6,SizingPeriod: CHICAGO OHARE INTL AP ANN HTG 99.6% CONDNS DB,1.0051549287E-004,2.6549127686E-005,Pass,Pass,1.6824933299E-005,9.7703345482E-006,Pass,Pass
 Warmup Convergence Information,THERMAL ZONE 16,SizingPeriod: CHICAGO OHARE INTL AP ANN HTG 99.6% CONDNS DB,2.4619701090E-005,1.9720974080E-005,Pass,Pass,1.5575454901E-005,6.1473280379E-006,Pass,Pass
 Warmup Convergence Information,THERMAL ZONE 20,SizingPeriod: CHICAGO OHARE INTL AP ANN HTG 99.6% CONDNS DB,2.4289031579E-004,4.0837250409E-005,Pass,Pass,2.0667181686E-005,1.6676109525E-005,Pass,Pass
 Warmup Convergence Information,THERMAL ZONE 14,SizingPeriod: CHICAGO OHARE INTL AP ANN HTG 99.6% CONDNS DB,8.6102224631E-005,2.8332751740E-005,Pass,Pass,1.7506860022E-005,9.0475014988E-006,Pass,Pass
 Warmup Convergence Information,THERMAL ZONE 19,SizingPeriod: CHICAGO OHARE INTL AP ANN HTG 99.6% CONDNS DB,1.0133896790E-004,2.7041940806E-005,Pass,Pass,1.7475172724E-005,9.9421387915E-006,Pass,Pass
 Warmup Convergence Information,THERMAL ZONE 12,SizingPeriod: CHICAGO OHARE INTL AP ANN HTG 99.6% CONDNS DB,4.7373918416E-003,3.4753584946E-003,Pass,Pass,2.9668421062E-003,2.2909509995E-003,Pass,Pass
 Warmup Convergence Information,THERMAL ZONE 9,SizingPeriod: CHICAGO OHARE INTL AP ANN HTG 99.6% CONDNS DB,7.6876897964E-005,2.1606007842E-005,Pass,Pass,1.4243613966E-005,7.8955727123E-006,Pass,Pass
Environment,CHICAGO OHARE INTL AP ANN CLG .4% CONDNS DP=>MDB,SizingPeriod:DesignDay,07/21,07/21,SummerDesignDay,1,N/A,N/A,N/A,N/A,N/A,N/A
Environment:Daylight Saving,No,SizingPeriod:DesignDay
Environment:Design Day Data,28.90,10.50,DefaultMultipliers,98934,230,5.2,0.00,No ,No 
Environment:Design_Day_Misc,202,1084.4,0.2082,0.1365,1.0,-6.23,20.6,ASHRAETau
Environment:WarmupDays,  7
 Warmup Convergence Information,THERMAL ZONE 1,SizingPeriod: CHICAGO OHARE INTL AP ANN CLG .4% CONDNS DP=>MDB,6.3745272822E-003,4.8307537282E-003,Pass,Pass,1.8455791577E-003,2.0074952284E-003,Pass,Pass
 Warmup Convergence Information,THERMAL ZONE 4,SizingPeriod: CHICAGO OHARE INTL AP ANN CLG .4% CONDNS DP=>MDB,1.5394169017E-002,3.5451996294E-002,Pass,Pass,0.2976046083,1.2447276360,Pass,Pass
 Warmup Convergence Information,THERMAL ZONE 18,SizingPeriod: CHICAGO OHARE INTL AP ANN CLG .4% CONDNS DP=>MDB,1.6307266854E-002,3.5739542851E-002,Pass,Pass,0.2252137303,1.1441776634,Pass,Pass
 Warmup Convergence Information,THERMAL ZONE 2,SizingPeriod: CHICAGO OHARE INTL AP ANN CLG .4% CONDNS DP=>MDB,8.4004757215E-002,0.1794088938,Pass,Pass,0.3313214370,1.1236951462,Pass,Pass
 Warmup Convergence Information,THERMAL ZONE 5,SizingPeriod: CHICAGO OHARE INTL AP ANN CLG .4% CONDNS DP=>MDB,2.0247448538E-003,3.7866252309E-003,Pass,Pass,1.7816181315E-002,1.4465313662E-002,Pass,Pass
 Warmup Convergence Information,THERMAL ZONE 17,SizingPeriod: CHICAGO OHARE INTL AP ANN CLG .4% CONDNS DP=>MDB,8.3585374783E-002,0.1035748521,Pass,Pass,0.2086414131,0.5924875764,Pass,Pass
 Warmup Convergence Information,THERMAL ZONE 13,SizingPeriod: CHICAGO OHARE INTL AP ANN CLG .4% CONDNS DP=>MDB,6.3334702168E-003,4.2851299548E-003,Pass,Pass,6.7965607995E-003,1.3923244806E-002,Pass,Pass
 Warmup Convergence Information,THERMAL ZONE 8,SizingPeriod: CHICAGO OHARE INTL AP ANN CLG .4% CONDNS DP=>MDB,8.3578923943E-002,0.1129649590,Pass,Pass,5.7666538790E-002,6.8728789706E-002,Pass,Pass
 Warmup Convergence Information,THERMAL ZONE 10,SizingPeriod: CHICAGO OHARE INTL AP ANN CLG .4% CONDNS DP=>MDB,8.1737836590E-002,0.1372874985,Pass,Pass,0.1738254000,0.4697235386,Pass,Pass
 Warmup Convergence Information,THERMAL ZONE 3,SizingPeriod: CHICAGO OHARE INTL AP ANN CLG .4% CONDNS DP=>MDB,8.3622130912E-002,0.1162860668,Pass,Pass,6.3427234282E-002,7.4544805659E-002,Pass,Pass
 Warmup Convergence Information,THERMAL ZONE 11,SizingPeriod: CHICAGO OHARE INTL AP ANN CLG .4% CONDNS DP=>MDB,8.3755002643E-002,0.1226075989,Pass,Pass,4.6545390787E-002,3.7752209982E-002,Pass,Pass
 Warmup Convergence Information,THERMAL ZONE 15,SizingPeriod: CHICAGO OHARE INTL AP ANN CLG .4% CONDNS DP=>MDB,1.0865419114E-003,8.8913361855E-004,Pass,Pass,0.2650393862,0.8199413758,Pass,Pass
 Warmup Convergence Information,THERMAL ZONE 7,SizingPeriod: CHICAGO OHARE INTL AP ANN CLG .4% CONDNS DP=>MDB,8.3731722990E-002,0.1251795492,Pass,Pass,5.8848980724E-002,4.8173762708E-002,Pass,Pass
 Warmup Convergence Information,THERMAL ZONE 6,SizingPeriod: CHICAGO OHARE INTL AP ANN CLG .4% CONDNS DP=>MDB,8.3589386449E-002,0.1015203479,Pass,Pass,5.5308399313E-002,5.1009488879E-002,Pass,Pass
 Warmup Convergence Information,THERMAL ZONE 16,SizingPeriod: CHICAGO OHARE INTL AP ANN CLG .4% CONDNS DP=>MDB,5.8890834426E-002,0.1035040821,Pass,Pass,0.3677493420,2.1081868660,Pass,Pass
 Warmup Convergence Information,THERMAL ZONE 20,SizingPeriod: CHICAGO OHARE INTL AP ANN CLG .4% CONDNS DP=>MDB,6.2392296303E-005,6.3956452826E-005,Pass,Pass,0.3468263399,1.6361119698,Pass,Pass
 Warmup Convergence Information,THERMAL ZONE 14,SizingPeriod: CHICAGO OHARE INTL AP ANN CLG .4% CONDNS DP=>MDB,8.3691957352E-002,9.6028418892E-002,Pass,Pass,5.3690105088E-002,4.9763643680E-002,Pass,Pass
 Warmup Convergence Information,THERMAL ZONE 19,SizingPeriod: CHICAGO OHARE INTL AP ANN CLG .4% CONDNS DP=>MDB,2.0592627096E-002,4.0541011650E-002,Pass,Pass,0.1592829027,0.4886667667,Pass,Pass
 Warmup Convergence Information,THERMAL ZONE 12,SizingPeriod: CHICAGO OHARE INTL AP ANN CLG .4% CONDNS DP=>MDB,8.3761554218E-002,0.1229707937,Pass,Pass,4.8003928105E-002,3.6869590479E-002,Pass,Pass
 Warmup Convergence Information,THERMAL ZONE 9,SizingPeriod: CHICAGO OHARE INTL AP ANN CLG .4% CONDNS DP=>MDB,8.3629322229E-002,0.1201938980,Pass,Pass,0.3058768503,1.9663765753,Pass,Pass
Environment,CHICAGO OHARE INTL AP ANN CLG 2% CONDNS DB=>MWB,SizingPeriod:DesignDay,07/21,07/21,SummerDesignDay,1,N/A,N/A,N/A,N/A,N/A,N/A
Environment:Daylight Saving,No,SizingPeriod:DesignDay
Environment:Design Day Data,30.10,10.50,DefaultMultipliers,98934,230,5.2,0.00,No ,No 
Environment:Design_Day_Misc,202,1084.4,0.2082,0.1365,1.0,-6.23,20.6,ASHRAETau
Environment:WarmupDays,  6
 Warmup Convergence Information,THERMAL ZONE 1,SizingPeriod: CHICAGO OHARE INTL AP ANN CLG 2% CONDNS DB=>MWB,6.0654320547E-003,4.7433525573E-003,Pass,Pass,2.1360431885E-003,2.4855819733E-003,Pass,Pass
 Warmup Convergence Information,THERMAL ZONE 4,SizingPeriod: CHICAGO OHARE INTL AP ANN CLG 2% CONDNS DB=>MWB,1.9163005860E-002,3.9260025133E-002,Pass,Pass,0.1967490645,0.6679231314,Pass,Pass
 Warmup Convergence Information,THERMAL ZONE 18,SizingPeriod: CHICAGO OHARE INTL AP ANN CLG 2% CONDNS DB=>MWB,2.0973926442E-002,4.0006526555E-002,Pass,Pass,6.4145659850E-002,8.0961438604E-002,Pass,Pass
 Warmup Convergence Information,THERMAL ZONE 2,SizingPeriod: CHICAGO OHARE INTL AP ANN CLG 2% CONDNS DB=>MWB,8.4090735343E-002,0.1788787837,Pass,Pass,0.3583840226,1.3594193810,Pass,Pass
 Warmup Convergence Information,THERMAL ZONE 5,SizingPeriod: CHICAGO OHARE INTL AP ANN CLG 2% CONDNS DB=>MWB,4.3329713328E-003,6.2224636303E-003,Pass,Pass,1.2914320939E-002,1.3737024470E-002,Pass,Pass
 Warmup Convergence Information,THERMAL ZONE 17,SizingPeriod: CHICAGO OHARE INTL AP ANN CLG 2% CONDNS DB=>MWB,8.3683323225E-002,0.1034138883,Pass,Pass,6.9974315984E-002,6.9717779273E-002,Pass,Pass
 Warmup Convergence Information,THERMAL ZONE 13,SizingPeriod: CHICAGO OHARE INTL AP ANN CLG 2% CONDNS DB=>MWB,7.7911659709E-003,3.2740451649E-003,Pass,Pass,1.2926183706E-003,3.2532214186E-003,Pass,Pass
 Warmup Convergence Information,THERMAL ZONE 8,SizingPeriod: CHICAGO OHARE INTL AP ANN CLG 2% CONDNS DB=>MWB,8.3566801646E-002,0.1139463846,Pass,Pass,4.6831528374E-002,5.3368568986E-002,Pass,Pass
 Warmup Convergence Information,THERMAL ZONE 10,SizingPeriod: CHICAGO OHARE INTL AP ANN CLG 2% CONDNS DB=>MWB,8.4025549201E-002,0.1399415988,Pass,Pass,0.1850542421,0.5221826836,Pass,Pass
 Warmup Convergence Information,THERMAL ZONE 3,SizingPeriod: CHICAGO OHARE INTL AP ANN CLG 2% CONDNS DB=>MWB,8.3619417255E-002,0.1178328787,Pass,Pass,5.0974815225E-002,5.6625863109E-002,Pass,Pass
 Warmup Convergence Information,THERMAL ZONE 11,SizingPeriod: CHICAGO OHARE INTL AP ANN CLG 2% CONDNS DB=>MWB,8.3694531856E-002,0.1213343396,Pass,Pass,4.1883130722E-002,3.6018411533E-002,Pass,Pass
 Warmup Convergence Information,THERMAL ZONE 15,SizingPeriod: CHICAGO OHARE INTL AP ANN CLG 2% CONDNS DB=>MWB,8.5302306108E-004,5.9827128098E-004,Pass,Pass,0.2442736927,0.6345092098,Pass,Pass
 Warmup Convergence Information,THERMAL ZONE 7,SizingPeriod: CHICAGO OHARE INTL AP ANN CLG 2% CONDNS DB=>MWB,8.3678292854E-002,0.1237739478,Pass,Pass,5.1506798202E-002,4.2804264208E-002,Pass,Pass
 Warmup Convergence Information,THERMAL ZONE 6,SizingPeriod: CHICAGO OHARE INTL AP ANN CLG 2% CONDNS DB=>MWB,8.3527149880E-002,0.1018120154,Pass,Pass,4.5255364920E-002,4.0647322813E-002,Pass,Pass
 Warmup Convergence Information,THERMAL ZONE 16,SizingPeriod: CHICAGO OHARE INTL AP ANN CLG 2% CONDNS DB=>MWB,6.2291602412E-002,0.1065802294,Pass,Pass,0.2791157902,1.1049088460,Pass,Pass
 Warmup Convergence Information,THERMAL ZONE 20,SizingPeriod: CHICAGO OHARE INTL AP ANN CLG 2% CONDNS DB=>MWB,6.6903052171E-005,5.9919191198E-005,Pass,Pass,0.2840802641,0.9368246394,Pass,Pass
 Warmup Convergence Information,THERMAL ZONE 14,SizingPeriod: CHICAGO OHARE INTL AP ANN CLG 2% CONDNS DB=>MWB,8.3510165427E-002,9.6841324290E-002,Pass,Pass,4.3133668278E-002,3.9734140760E-002,Pass,Pass
[...]
 Warmup Convergence Information,THERMAL ZONE 5,SizingPeriod: CHICAGO OHARE INTL AP ANN CLG 1% CONDNS WB=>MDB,3.4719693381E-003,5.3925391278E-003,Pass,Pass,1.4743042835E-002,1.3479292406E-002,Pass,Pass
 Warmup Convergence Information,THERMAL ZONE 17,SizingPeriod: CHICAGO OHARE INTL AP ANN CLG 1% CONDNS WB=>MDB,8.3594282695E-002,0.1036381925,Pass,Pass,8.5736173731E-002,9.9047133206E-002,Pass,Pass
 Warmup Convergence Information,THERMAL ZONE 13,SizingPeriod: CHICAGO OHARE INTL AP ANN CLG 1% CONDNS WB=>MDB,7.2266837269E-003,3.8862283290E-003,Pass,Pass,4.3491485543E-003,1.3784566682E-002,Pass,Pass
 Warmup Convergence Information,THERMAL ZONE 8,SizingPeriod: CHICAGO OHARE INTL AP ANN CLG 1% CONDNS WB=>MDB,8.3530329033E-002,0.1130388107,Pass,Pass,5.0114300234E-002,5.7374887479E-002,Pass,Pass
 Warmup Convergence Information,THERMAL ZONE 10,SizingPeriod: CHICAGO OHARE INTL AP ANN CLG 1% CONDNS WB=>MDB,8.3837736349E-002,0.1391605662,Pass,Pass,0.1858762284,0.5482285619,Pass,Pass
 Warmup Convergence Information,THERMAL ZONE 3,SizingPeriod: CHICAGO OHARE INTL AP ANN CLG 1% CONDNS WB=>MDB,8.3612948080E-002,0.1169823198,Pass,Pass,5.4706616528E-002,6.0663088113E-002,Pass,Pass
 Warmup Convergence Information,THERMAL ZONE 11,SizingPeriod: CHICAGO OHARE INTL AP ANN CLG 1% CONDNS WB=>MDB,8.3628817876E-002,0.1218356082,Pass,Pass,4.3591168631E-002,3.6430800798E-002,Pass,Pass
 Warmup Convergence Information,THERMAL ZONE 15,SizingPeriod: CHICAGO OHARE INTL AP ANN CLG 1% CONDNS WB=>MDB,9.5608262813E-004,7.7457002122E-004,Pass,Pass,0.4195908974,2.2634311801,Pass,Pass
 Warmup Convergence Information,THERMAL ZONE 7,SizingPeriod: CHICAGO OHARE INTL AP ANN CLG 1% CONDNS WB=>MDB,8.3661578907E-002,0.1243972627,Pass,Pass,5.4084605294E-002,4.4869707984E-002,Pass,Pass
 Warmup Convergence Information,THERMAL ZONE 6,SizingPeriod: CHICAGO OHARE INTL AP ANN CLG 1% CONDNS WB=>MDB,8.3546453881E-002,0.1015403624,Pass,Pass,4.8418667472E-002,4.3716594462E-002,Pass,Pass
 Warmup Convergence Information,THERMAL ZONE 16,SizingPeriod: CHICAGO OHARE INTL AP ANN CLG 1% CONDNS WB=>MDB,6.0870858559E-002,0.1056663898,Pass,Pass,0.2180848548,0.6478288431,Pass,Pass
 Warmup Convergence Information,THERMAL ZONE 20,SizingPeriod: CHICAGO OHARE INTL AP ANN CLG 1% CONDNS WB=>MDB,7.0715184888E-005,6.7356353494E-005,Pass,Pass,0.2147833228,0.5145907462,Pass,Pass
 Warmup Convergence Information,THERMAL ZONE 14,SizingPeriod: CHICAGO OHARE INTL AP ANN CLG 1% CONDNS WB=>MDB,8.3652564367E-002,9.6702052732E-002,Pass,Pass,4.6408478144E-002,4.2214952905E-002,Pass,Pass
 Warmup Convergence Information,THERMAL ZONE 19,SizingPeriod: CHICAGO OHARE INTL AP ANN CLG 1% CONDNS WB=>MDB,2.3233219928E-002,4.2450453293E-002,Pass,Pass,0.2519236858,1.4482093981,Pass,Pass
 Warmup Convergence Information,THERMAL ZONE 12,SizingPeriod: CHICAGO OHARE INTL AP ANN CLG 1% CONDNS WB=>MDB,8.3691648430E-002,0.1220882556,Pass,Pass,4.4471381116E-002,3.5656067393E-002,Pass,Pass
 Warmup Convergence Information,THERMAL ZONE 9,SizingPeriod: CHICAGO OHARE INTL AP ANN CLG 1% CONDNS WB=>MDB,8.3545646411E-002,0.1203834942,Pass,Pass,0.1405643253,0.3513851676,Pass,Pass
Environment,CHICAGO OHARE INTL AP ANN HTG 99% CONDNS DB,SizingPeriod:DesignDay,01/21,01/21,WinterDesignDay,1,N/A,N/A,N/A,N/A,N/A,N/A
Environment:Daylight Saving,No,SizingPeriod:DesignDay
Environment:Design Day Data,-16.60,0.00,DefaultMultipliers,98934,270,4.9,0.00,No ,No 
Environment:Design_Day_Misc, 21,1229.0,0.1415,5.7310E-002,1.0,-11.15,-20.1,ASHRAEClearSky
Environment:WarmupDays,  6
 Warmup Convergence Information,THERMAL ZONE 1,SizingPeriod: CHICAGO OHARE INTL AP ANN HTG 99% CONDNS DB,5.1629380295E-005,8.6820427272E-006,Pass,Pass,7.9215507040E-006,7.1898773172E-006,Pass,Pass
 Warmup Convergence Information,THERMAL ZONE 4,SizingPeriod: CHICAGO OHARE INTL AP ANN HTG 99% CONDNS DB,5.8960661026E-005,1.5722229086E-005,Pass,Pass,8.6233076736E-006,7.6903703508E-006,Pass,Pass
 Warmup Convergence Information,THERMAL ZONE 18,SizingPeriod: CHICAGO OHARE INTL AP ANN HTG 99% CONDNS DB,6.2872114378E-005,1.8479297103E-005,Pass,Pass,8.9274663501E-006,7.6752245195E-006,Pass,Pass
 Warmup Convergence Information,THERMAL ZONE 2,SizingPeriod: CHICAGO OHARE INTL AP ANN HTG 99% CONDNS DB,2.1061381314E-005,7.4027914339E-006,Pass,Pass,5.6257662459E-006,8.0798763121E-006,Pass,Pass
 Warmup Convergence Information,THERMAL ZONE 5,SizingPeriod: CHICAGO OHARE INTL AP ANN HTG 99% CONDNS DB,1.8305193203E-004,3.1377203941E-005,Pass,Pass,1.7392655847E-005,7.9032182378E-006,Pass,Pass
 Warmup Convergence Information,THERMAL ZONE 17,SizingPeriod: CHICAGO OHARE INTL AP ANN HTG 99% CONDNS DB,5.8862812069E-005,1.5671935692E-005,Pass,Pass,8.6055291273E-006,7.6623851766E-006,Pass,Pass
 Warmup Convergence Information,THERMAL ZONE 13,SizingPeriod: CHICAGO OHARE INTL AP ANN HTG 99% CONDNS DB,2.2679327898E-004,3.6566769382E-005,Pass,Pass,2.0339365765E-005,9.2484126086E-006,Pass,Pass
 Warmup Convergence Information,THERMAL ZONE 8,SizingPeriod: CHICAGO OHARE INTL AP ANN HTG 99% CONDNS DB,5.3823517394E-005,1.4707308162E-005,Pass,Pass,7.7550504940E-006,6.8103914010E-006,Pass,Pass
 Warmup Convergence Information,THERMAL ZONE 10,SizingPeriod: CHICAGO OHARE INTL AP ANN HTG 99% CONDNS DB,2.1733058258E-005,7.6125745961E-006,Pass,Pass,5.7403145949E-006,8.2040540647E-006,Pass,Pass
 Warmup Convergence Information,THERMAL ZONE 3,SizingPeriod: CHICAGO OHARE INTL AP ANN HTG 99% CONDNS DB,4.1700980380E-005,7.5335624196E-006,Pass,Pass,5.7481030854E-006,3.0702116216E-006,Pass,Pass
 Warmup Convergence Information,THERMAL ZONE 11,SizingPeriod: CHICAGO OHARE INTL AP ANN HTG 99% CONDNS DB,4.7023815311E-005,5.7696205203E-006,Pass,Pass,3.9783609496E-006,9.2736383704E-007,Pass,Pass
 Warmup Convergence Information,THERMAL ZONE 15,SizingPeriod: CHICAGO OHARE INTL AP ANN HTG 99% CONDNS DB,2.2911914394E-005,8.0324172808E-006,Pass,Pass,5.8678452187E-006,8.2767040530E-006,Pass,Pass
 Warmup Convergence Information,THERMAL ZONE 7,SizingPeriod: CHICAGO OHARE INTL AP ANN HTG 99% CONDNS DB,4.1144404001E-005,5.0045574541E-006,Pass,Pass,4.2725787144E-006,1.8939533095E-006,Pass,Pass
 Warmup Convergence Information,THERMAL ZONE 6,SizingPeriod: CHICAGO OHARE INTL AP ANN HTG 99% CONDNS DB,7.3790737425E-005,1.6610863387E-005,Pass,Pass,9.4429762095E-006,7.0229686861E-006,Pass,Pass
 Warmup Convergence Information,THERMAL ZONE 16,SizingPeriod: CHICAGO OHARE INTL AP ANN HTG 99% CONDNS DB,2.2898832546E-005,8.0277965150E-006,Pass,Pass,5.8655515433E-006,8.2738436034E-006,Pass,Pass
 Warmup Convergence Information,THERMAL ZONE 20,SizingPeriod: CHICAGO OHARE INTL AP ANN HTG 99% CONDNS DB,1.7533028876E-004,2.8806505791E-005,Pass,Pass,1.6745187246E-005,7.6705058384E-006,Pass,Pass
 Warmup Convergence Information,THERMAL ZONE 14,SizingPeriod: CHICAGO OHARE INTL AP ANN HTG 99% CONDNS DB,6.2772811501E-005,1.8421264908E-005,Pass,Pass,8.9102187797E-006,7.6479033947E-006,Pass,Pass
 Warmup Convergence Information,THERMAL ZONE 19,SizingPeriod: CHICAGO OHARE INTL AP ANN HTG 99% CONDNS DB,7.4493366267E-005,1.7045879479E-005,Pass,Pass,9.6998041956E-006,7.4457859804E-006,Pass,Pass
 Warmup Convergence Information,THERMAL ZONE 12,SizingPeriod: CHICAGO OHARE INTL AP ANN HTG 99% CONDNS DB,2.2165203732E-003,3.5675931676E-003,Pass,Pass,1.2546167834E-003,2.2067183718E-003,Pass,Pass
 Warmup Convergence Information,THERMAL ZONE 9,SizingPeriod: CHICAGO OHARE INTL AP ANN HTG 99% CONDNS DB,4.8518937834E-005,1.1322740618E-005,Pass,Pass,6.9499364321E-006,5.9826552151E-006,Pass,Pass
Environment,CHICAGO OHARE INTL AP ANN CLG .4% CONDNS ENTH=>MDB,SizingPeriod:DesignDay,07/21,07/21,SummerDesignDay,1,N/A,N/A,N/A,N/A,N/A,N/A
Environment:Daylight Saving,No,SizingPeriod:DesignDay
Environment:Design Day Data,31.40,10.50,DefaultMultipliers,98934,230,5.2,0.00,No ,No 
Environment:Design_Day_Misc,202,1084.4,0.2082,0.1365,1.0,-6.23,20.6,ASHRAETau
Environment:WarmupDays,  6
 Warmup Convergence Information,THERMAL ZONE 1,SizingPeriod: CHICAGO OHARE INTL AP ANN CLG .4% CONDNS ENTH=>MDB,5.6613437603E-003,4.6518635153E-003,Pass,Pass,2.3076402612E-003,2.7284933110E-003,Pass,Pass
 Warmup Convergence Information,THERMAL ZONE 4,SizingPeriod: CHICAGO OHARE INTL AP ANN CLG .4% CONDNS ENTH=>MDB,2.5235959772E-002,4.3416509905E-002,Pass,Pass,0.1847873985,0.8165704267,Pass,Pass
 Warmup Convergence Information,THERMAL ZONE 18,SizingPeriod: CHICAGO OHARE INTL AP ANN CLG .4% CONDNS ENTH=>MDB,2.8356863798E-002,4.2186472083E-002,Pass,Pass,3.9089557533E-002,4.4245280296E-002,Pass,Pass
 Warmup Convergence Information,THERMAL ZONE 2,SizingPeriod: CHICAGO OHARE INTL AP ANN CLG .4% CONDNS ENTH=>MDB,8.3944806456E-002,0.1801030795,Pass,Pass,0.2322633231,0.4684362533,Pass,Pass
 Warmup Convergence Information,THERMAL ZONE 5,SizingPeriod: CHICAGO OHARE INTL AP ANN CLG .4% CONDNS ENTH=>MDB,8.2589518772E-003,8.7117345712E-003,Pass,Pass,7.0886042709E-003,1.2047306554E-002,Pass,Pass
 Warmup Convergence Information,THERMAL ZONE 17,SizingPeriod: CHICAGO OHARE INTL AP ANN CLG .4% CONDNS ENTH=>MDB,8.3590863520E-002,0.1037615808,Pass,Pass,5.1384815153E-002,4.5114122481E-002,Pass,Pass
 Warmup Convergence Information,THERMAL ZONE 13,SizingPeriod: CHICAGO OHARE INTL AP ANN CLG .4% CONDNS ENTH=>MDB,7.6838737341E-003,3.0034177222E-003,Pass,Pass,6.7284870519E-004,2.5208380843E-004,Pass,Pass
 Warmup Convergence Information,THERMAL ZONE 8,SizingPeriod: CHICAGO OHARE INTL AP ANN CLG .4% CONDNS ENTH=>MDB,8.3535535642E-002,0.1161385911,Pass,Pass,3.8867299350E-002,4.5157801540E-002,Pass,Pass
 Warmup Convergence Information,THERMAL ZONE 10,SizingPeriod: CHICAGO OHARE INTL AP ANN CLG .4% CONDNS ENTH=>MDB,8.3962330542E-002,0.1410498766,Pass,Pass,0.4463221434,2.2253633528,Pass,Pass
 Warmup Convergence Information,THERMAL ZONE 3,SizingPeriod: CHICAGO OHARE INTL AP ANN CLG .4% CONDNS ENTH=>MDB,8.3464124308E-002,0.1195126985,Pass,Pass,4.2878915997E-002,4.6661059060E-002,Pass,Pass
 Warmup Convergence Information,THERMAL ZONE 11,SizingPeriod: CHICAGO OHARE INTL AP ANN CLG .4% CONDNS ENTH=>MDB,8.3583069439E-002,0.1188751083,Pass,Pass,3.7526057793E-002,3.5953538386E-002,Pass,Pass
 Warmup Convergence Information,THERMAL ZONE 15,SizingPeriod: CHICAGO OHARE INTL AP ANN CLG .4% CONDNS ENTH=>MDB,8.0472798192E-004,7.2879175722E-004,Pass,Pass,0.4368764496,2.2019527995,Pass,Pass
 Warmup Convergence Information,THERMAL ZONE 7,SizingPeriod: CHICAGO OHARE INTL AP ANN CLG .4% CONDNS ENTH=>MDB,8.3618247302E-002,0.1217209484,Pass,Pass,4.5312732199E-002,3.9280272264E-002,Pass,Pass
 Warmup Convergence Information,THERMAL ZONE 6,SizingPeriod: CHICAGO OHARE INTL AP ANN CLG .4% CONDNS ENTH=>MDB,8.3445143794E-002,0.1018290095,Pass,Pass,3.7708332839E-002,3.4006800018E-002,Pass,Pass
 Warmup Convergence Information,THERMAL ZONE 16,SizingPeriod: CHICAGO OHARE INTL AP ANN CLG .4% CONDNS ENTH=>MDB,6.7151616986E-002,0.1100799619,Pass,Pass,0.4061255429,2.3798772897,Pass,Pass
 Warmup Convergence Information,THERMAL ZONE 20,SizingPeriod: CHICAGO OHARE INTL AP ANN CLG .4% CONDNS ENTH=>MDB,5.6731280622E-005,5.4972612149E-005,Pass,Pass,0.2180121617,0.5450526047,Pass,Pass
 Warmup Convergence Information,THERMAL ZONE 14,SizingPeriod: CHICAGO OHARE INTL AP ANN CLG .4% CONDNS ENTH=>MDB,8.3490687751E-002,9.6845390517E-002,Pass,Pass,3.5556938755E-002,3.2464369955E-002,Pass,Pass
 Warmup Convergence Information,THERMAL ZONE 19,SizingPeriod: CHICAGO OHARE INTL AP ANN CLG .4% CONDNS ENTH=>MDB,3.1810082139E-002,4.4723187294E-002,Pass,Pass,4.5705617787E-002,5.4931139212E-002,Pass,Pass
 Warmup Convergence Information,THERMAL ZONE 12,SizingPeriod: CHICAGO OHARE INTL AP ANN CLG .4% CONDNS ENTH=>MDB,8.3516771872E-002,0.1188311301,Pass,Pass,3.7445528464E-002,3.5193567260E-002,Pass,Pass
 Warmup Convergence Information,THERMAL ZONE 9,SizingPeriod: CHICAGO OHARE INTL AP ANN CLG .4% CONDNS ENTH=>MDB,8.3542019999E-002,0.1229174606,Pass,Pass,5.7312234380E-002,6.3451794888E-002,Pass,Pass
Environment,CHICAGO OHARE INTL AP ANN CLG 2% CONDNS WB=>MDB,SizingPeriod:DesignDay,07/21,07/21,SummerDesignDay,1,N/A,N/A,N/A,N/A,N/A,N/A
Environment:Daylight Saving,No,SizingPeriod:DesignDay
Environment:Design Day Data,28.10,10.50,DefaultMultipliers,98934,230,5.2,0.00,No ,No 
Environment:Design_Day_Misc,202,1084.4,0.2082,0.1365,1.0,-6.23,20.6,ASHRAETau
Environment:WarmupDays,  7
 Warmup Convergence Information,THERMAL ZONE 1,SizingPeriod: CHICAGO OHARE INTL AP ANN CLG 2% CONDNS WB=>MDB,6.5485672039E-003,4.8642239340E-003,Pass,Pass,1.4690709108E-003,1.6021724921E-003,Pass,Pass
 Warmup Convergence Information,THERMAL ZONE 4,SizingPeriod: CHICAGO OHARE INTL AP ANN CLG 2% CONDNS WB=>MDB,1.2631997668E-002,3.0986275209E-002,Pass,Pass,0.1884736744,0.4824439241,Pass,Pass
 Warmup Convergence Information,THERMAL ZONE 18,SizingPeriod: CHICAGO OHARE INTL AP ANN CLG 2% CONDNS WB=>MDB,1.2898633432E-002,3.2759818262E-002,Pass,Pass,0.2895807209,1.3837160157,Pass,Pass
 Warmup Convergence Information,THERMAL ZONE 2,SizingPeriod: CHICAGO OHARE INTL AP ANN CLG 2% CONDNS WB=>MDB,8.3952495597E-002,0.1786776344,Pass,Pass,0.4632958746,2.0340024064,Pass,Pass
 Warmup Convergence Information,THERMAL ZONE 5,SizingPeriod: CHICAGO OHARE INTL AP ANN CLG 2% CONDNS WB=>MDB,4.7729765523E-004,1.0527634931E-003,Pass,Pass,2.1484618118E-002,1.3236138330E-002,Pass,Pass
 Warmup Convergence Information,THERMAL ZONE 17,SizingPeriod: CHICAGO OHARE INTL AP ANN CLG 2% CONDNS WB=>MDB,8.3661359739E-002,0.1023165050,Pass,Pass,0.1897865119,0.4731199937,Pass,Pass
 Warmup Convergence Information,THERMAL ZONE 13,SizingPeriod: CHICAGO OHARE INTL AP ANN CLG 2% CONDNS WB=>MDB,5.3329667996E-003,4.4975832867E-003,Pass,Pass,1.0867712602E-002,1.6389588318E-002,Pass,Pass
 Warmup Convergence Information,THERMAL ZONE 8,SizingPeriod: CHICAGO OHARE INTL AP ANN CLG 2% CONDNS WB=>MDB,8.3691326423E-002,0.1115963862,Pass,Pass,7.5891346811E-002,0.1088617477,Pass,Pass
 Warmup Convergence Information,THERMAL ZONE 10,SizingPeriod: CHICAGO OHARE INTL AP ANN CLG 2% CONDNS WB=>MDB,7.9649421764E-002,0.1361854549,Pass,Pass,0.4173874205,2.6735991277,Pass,Pass
 Warmup Convergence Information,THERMAL ZONE 3,SizingPeriod: CHICAGO OHARE INTL AP ANN CLG 2% CONDNS WB=>MDB,8.3668701594E-002,0.1158770621,Pass,Pass,9.2452482512E-002,0.1707689210,Pass,Pass
 Warmup Convergence Information,THERMAL ZONE 11,SizingPeriod: CHICAGO OHARE INTL AP ANN CLG 2% CONDNS WB=>MDB,8.3730116412E-002,0.1235972672,Pass,Pass,5.0633635662E-002,3.9526485021E-002,Pass,Pass
 Warmup Convergence Information,THERMAL ZONE 15,SizingPeriod: CHICAGO OHARE INTL AP ANN CLG 2% CONDNS WB=>MDB,9.5261540760E-004,9.6145794158E-004,Pass,Pass,0.1994301759,0.4296652806,Pass,Pass
 Warmup Convergence Information,THERMAL ZONE 7,SizingPeriod: CHICAGO OHARE INTL AP ANN CLG 2% CONDNS WB=>MDB,8.3642115610E-002,0.1252660132,Pass,Pass,6.6877105829E-002,5.5494729833E-002,Pass,Pass
 Warmup Convergence Information,THERMAL ZONE 6,SizingPeriod: CHICAGO OHARE INTL AP ANN CLG 2% CONDNS WB=>MDB,8.3594464508E-002,0.1010882775,Pass,Pass,6.9101139964E-002,6.9932260984E-002,Pass,Pass
 Warmup Convergence Information,THERMAL ZONE 16,SizingPeriod: CHICAGO OHARE INTL AP ANN CLG 2% CONDNS WB=>MDB,5.6391311109E-002,0.1013160685,Pass,Pass,0.2097087240,0.6150906854,Pass,Pass
 Warmup Convergence Information,THERMAL ZONE 20,SizingPeriod: CHICAGO OHARE INTL AP ANN CLG 2% CONDNS WB=>MDB,6.3584863697E-005,5.8208904392E-005,Pass,Pass,0.2210629303,0.5928265438,Pass,Pass
 Warmup Convergence Information,THERMAL ZONE 14,SizingPeriod: CHICAGO OHARE INTL AP ANN CLG 2% CONDNS WB=>MDB,8.3622226151E-002,9.6172083000E-002,Pass,Pass,6.8816786894E-002,7.2122759566E-002,Pass,Pass
 Warmup Convergence Information,THERMAL ZONE 19,SizingPeriod: CHICAGO OHARE INTL AP ANN CLG 2% CONDNS WB=>MDB,1.7410813957E-002,3.6511955718E-002,Pass,Pass,0.2604461140,1.2822056242,Pass,Pass
 Warmup Convergence Information,THERMAL ZONE 12,SizingPeriod: CHICAGO OHARE INTL AP ANN CLG 2% CONDNS WB=>MDB,8.3733114427E-002,0.1242944664,Pass,Pass,5.3217361135E-002,3.9213818538E-002,Pass,Pass
 Warmup Convergence Information,THERMAL ZONE 9,SizingPeriod: CHICAGO OHARE INTL AP ANN CLG 2% CONDNS WB=>MDB,8.3645801688E-002,0.1191185797,Pass,Pass,0.1833791261,0.6515922430,Pass,Pass
Environment,RUN PERIOD 1,WeatherFileRunPeriod,01/01,12/31,Thursday,365,Use RunPeriod Specified Day,Yes,Yes,No ,Yes,Yes
Environment:Daylight Saving,Yes,InputFile,03/08,11/01
Environment:WarmupDays,  6
 Warmup Convergence Information,THERMAL ZONE 1,RunPeriod: RUN PERIOD 1,3.7286154900E-003,3.5778154159E-003,Pass,Pass,4.0082950349E-004,3.6899155645E-004,Pass,Pass
 Warmup Convergence Information,THERMAL ZONE 4,RunPeriod: RUN PERIOD 1,2.5641050478E-003,1.6312025723E-003,Pass,Pass,1.0187649870E-002,9.9586221662E-003,Pass,Pass
 Warmup Convergence Information,THERMAL ZONE 18,RunPeriod: RUN PERIOD 1,3.1529485246E-003,2.3624669829E-003,Pass,Pass,8.5801892358E-003,8.9746974933E-003,Pass,Pass
 Warmup Convergence Information,THERMAL ZONE 2,RunPeriod: RUN PERIOD 1,4.6288202173E-003,5.7514695166E-003,Pass,Pass,1.2228784026E-002,1.2411965349E-002,Pass,Pass
 Warmup Convergence Information,THERMAL ZONE 5,RunPeriod: RUN PERIOD 1,9.4372131776E-004,6.7453236633E-004,Pass,Pass,4.9767091274E-003,3.9201774908E-003,Pass,Pass
 Warmup Convergence Information,THERMAL ZONE 17,RunPeriod: RUN PERIOD 1,1.7324814204E-003,1.6044272345E-003,Pass,Pass,0.1947443157,0.4385720858,Pass,Pass
 Warmup Convergence Information,THERMAL ZONE 13,RunPeriod: RUN PERIOD 1,2.8523378473E-004,2.2016525055E-004,Pass,Pass,6.2233069942E-003,4.9373688706E-003,Pass,Pass
 Warmup Convergence Information,THERMAL ZONE 8,RunPeriod: RUN PERIOD 1,2.5984348516E-003,1.7782399931E-003,Pass,Pass,2.5752736501E-002,3.4692265083E-002,Pass,Pass
 Warmup Convergence Information,THERMAL ZONE 10,RunPeriod: RUN PERIOD 1,4.7164824134E-003,9.6620899605E-003,Pass,Pass,3.3222516868E-002,5.6479379522E-002,Pass,Pass
 Warmup Convergence Information,THERMAL ZONE 3,RunPeriod: RUN PERIOD 1,2.0447075825E-003,1.5138153315E-003,Pass,Pass,3.4621092274E-002,4.7343956741E-002,Pass,Pass
 Warmup Convergence Information,THERMAL ZONE 11,RunPeriod: RUN PERIOD 1,2.6176415428E-003,1.8433880065E-003,Pass,Pass,1.4102291260E-002,1.2328550906E-002,Pass,Pass
 Warmup Convergence Information,THERMAL ZONE 15,RunPeriod: RUN PERIOD 1,4.8319227859E-003,5.7105817960E-003,Pass,Pass,8.0822398117E-003,9.1363733704E-003,Pass,Pass
 Warmup Convergence Information,THERMAL ZONE 7,RunPeriod: RUN PERIOD 1,2.6606926388E-003,2.0545411605E-003,Pass,Pass,1.3954145386E-002,1.2745947267E-002,Pass,Pass
 Warmup Convergence Information,THERMAL ZONE 6,RunPeriod: RUN PERIOD 1,1.5980711062E-003,1.4072917333E-003,Pass,Pass,0.2284239103,0.6428474575,Pass,Pass
 Warmup Convergence Information,THERMAL ZONE 16,RunPeriod: RUN PERIOD 1,3.9032009204E-003,6.2379349280E-003,Pass,Pass,0.1686151116,0.5057858115,Pass,Pass
 Warmup Convergence Information,THERMAL ZONE 20,RunPeriod: RUN PERIOD 1,3.3307342657E-003,2.3766280426E-003,Pass,Pass,5.4741100069E-004,4.4987100284E-004,Pass,Pass
 Warmup Convergence Information,THERMAL ZONE 14,RunPeriod: RUN PERIOD 1,2.4121852347E-003,2.0035030139E-003,Pass,Pass,1.0511316998,8.6184724336,Pass,Pass
 Warmup Convergence Information,THERMAL ZONE 19,RunPeriod: RUN PERIOD 1,2.7217771725E-003,1.9569796788E-003,Pass,Pass,1.0028889805E-002,1.0153230910E-002,Pass,Pass
 Warmup Convergence Information,THERMAL ZONE 12,RunPeriod: RUN PERIOD 1,2.7665064071E-003,2.0918347787E-003,Pass,Pass,1.1825468812E-002,1.0338651682E-002,Pass,Pass
 Warmup Convergence Information,THERMAL ZONE 9,RunPeriod: RUN PERIOD 1,2.1273485667E-003,1.5979635442E-003,Pass,Pass,3.4034763421E-002,4.6988626160E-002,Pass,Pass
! <Program Control Information:Threads/Parallel Sims>, Threading Supported,Maximum Number of Threads, Env Set Threads (OMP_NUM_THREADS), EP Env Set Threads (EP_OMP_NUM_THREADS), IDF Set Threads, Number of Threads Used (Interior Radiant Exchange), Number Nominal Surfaces, Number Parallel Sims
Program Control:Threads/Parallel Sims, Yes,1, Not Set, Not Set, 1, 1, 136, N/A
End of Data
