Program Version,EnergyPlus-Linux-OMP-32 7.2.0.006, YMD=2013.06.22 03:38
! <Version>, Version ID
 Version, 7.2
! <Timesteps per Hour>, #TimeSteps, Minutes per TimeStep {minutes}
 Timesteps per Hour,  4, 15
! <System Convergence Limits>, Minimum System TimeStep {minutes}, Max HVAC Iterations,  Minimum Plant Iterations, Maximum Plant Iterations
 System Convergence Limits, 1, 20, 2, 8
! <Simulation Control>, Do Zone Sizing, Do System Sizing, Do Plant Sizing, Do Design Days, Do Weather Simulation
 Simulation Control, Yes, Yes, Yes, Yes, Yes
! <Output Reporting Tolerances>, Tolerance for Time Heating Setpoint Not Met, Tolerance for Time Cooling Setpoint Not Met
 Output Reporting Tolerances, 0.200, 0.200, 
! <Site:GroundTemperature:BuildingSurface>, Months From Jan to Dec {Deg C}
 Site:GroundTemperature:BuildingSurface,  18.00,  18.00,  18.00,  18.00,  18.00,  18.00,  18.00,  18.00,  18.00,  18.00,  18.00,  18.00
! <Site:GroundTemperature:FCfactorMethod>, Months From Jan to Dec {Deg C}
 Site:GroundTemperature:FCfactorMethod,  13.01,  15.04,  18.98,  22.72,  29.80,  33.52,  34.55,  32.66,  28.30,  22.86,  17.51,  13.97
! <Site:GroundTemperature:Shallow>, Months From Jan to Dec {Deg C}
 Site:GroundTemperature:Shallow,  13.00,  13.00,  13.00,  13.00,  13.00,  13.00,  13.00,  13.00,  13.00,  13.00,  13.00,  13.00
! <Site:GroundTemperature:Deep>, Months From Jan to Dec {Deg C}
 Site:GroundTemperature:Deep,  16.00,  16.00,  16.00,  16.00,  16.00,  16.00,  16.00,  16.00,  16.00,  16.00,  16.00,  16.00
! <Site:GroundReflectance>, Months From Jan to Dec {dimensionless}
 Site:GroundReflectance,  0.20,  0.20,  0.20,  0.20,  0.20,  0.20,  0.20,  0.20,  0.20,  0.20,  0.20,  0.20
! <Site:GroundReflectance:SnowModifier>, Normal, Daylighting {dimensionless}
 Site:GroundReflectance:SnowModifier,   1.000,   1.000
! <Site:GroundReflectance:Snow>, Months From Jan to Dec {dimensionless}
 Site:GroundReflectance:Snow,  0.20,  0.20,  0.20,  0.20,  0.20,  0.20,  0.20,  0.20,  0.20,  0.20,  0.20,  0.20
! <Site:GroundReflectance:Snow:Daylighting>, Months From Jan to Dec {dimensionless}
 Site:GroundReflectance:Snow:Daylighting,  0.20,  0.20,  0.20,  0.20,  0.20,  0.20,  0.20,  0.20,  0.20,  0.20,  0.20,  0.20
! <Environment:Weather Station>,Wind Sensor Height Above Ground {m},Wind Speed Profile Exponent {},Wind Speed Profile Boundary Layer Thickness {m},Air Temperature Sensor Height Above Ground {m},Wind Speed Modifier Coefficient [Internal],Temperature Modifier Coefficient [Internal]
Environment:Weather Station,10.000,0.140,270.000,1.500,1.586,9.750E-003
! <Site:Location>, Location Name, Latitude {N+/S- Deg}, Longitude {E+/W- Deg},  Time Zone Number {GMT+/-}, Elevation {m},  Standard Pressure at Elevation {Pa}, Standard RhoAir at Elevation
Site:Location,Phoenix Sky Harbor Intl Ap AZ USA TMY3 WMO#=722780,33.45,-111.98,-7.00,337.00,97342,1.1570
! <Building Information>, Building Name,North Axis {deg},Terrain,  Loads Convergence Tolerance Value,Temperature Convergence Tolerance Value,  Solar Distribution,Maximum Number of Warmup Days,Minimum Number of Warmup Days
 Building Information,Building 1,0.000,Suburbs,4.00000E-002,0.40000,FullExterior,25,6
! <Inside Convection Algorithm>, Algorithm {Simple | TARP | CeilingDiffuser | AdaptiveConvectionAlgorithm}
Inside Convection Algorithm,TARP
! <Outside Convection Algorithm>, Algorithm {SimpleCombined | TARP | MoWitt | DOE-2 | AdaptiveConvectionAlgorithm}
Outside Convection Algorithm,DOE-2
! <Sky Radiance Distribution>, Value {Anisotropic}
Sky Radiance Distribution,Anisotropic
! <Zone Air Solution Algorithm>, Value {ThirdOrderBackwardDifference | AnalyticalSolution | EulerMethod}
 Zone Air Solution Algorithm, ThirdOrderBackwardDifference
! <Zone Air Contaminant Balance Simulation>, Simulation {Yes/No}, Carbon Dioxide Concentration
 Zone Air Carbon Dioxide Balance Simulation, No,N/A
! <Zone Air Contaminant Balance Simulation>, Simulation {Yes/No}, Generic Contaminant Concentration
 Zone Air Generic Contaminant Balance Simulation, No,N/A
! <Environment:Site Atmospheric Variation>,Wind Speed Profile Exponent {},Wind Speed Profile Boundary Layer Thickness {m},Air Temperature Gradient Coefficient {K/m}
Environment:Site Atmospheric Variation,0.220,370.000,6.500000E-003
! <SurfaceGeometry>,Starting Corner,Vertex Input Direction,Coordinate System,Daylight Reference Point Coordinate System,Rectangular (Simple) Surface Coordinate System
 Surface Geometry,UpperLeftCorner,Counterclockwise,RelativeCoordinateSystem,RelativeCoordinateSystem,RelativeToZoneOrigin
! <Surface Heat Transfer Algorithm>, Value {CTF - ConductionTransferFunction | EMPD - MoisturePenetrationDepthConductionTransferFunction | CondFD - ConductionFiniteDifference | HAMT - CombinedHeatAndMoistureFiniteElement} - Description,Inside Surface Max Temperature Limit{C}, Surface Convection Coefficient Lower Limit {W/m2-K}, Surface Convection Coefficient Upper Limit {W/m2-K}
Surface Heat Transfer Algorithm, CTF - ConductionTransferFunction,200,0.10,1000.0
! <Shading Summary>, Number of Fixed Detached Shades, Number of Building Detached Shades, Number of Attached Shades
 Shading Summary,0,0,0
! <Zone Summary>, Number of Zones, Number of Zone Surfaces, Number of SubSurfaces
 Zone Summary,25,170,20
! <Zone Information>,Zone Name,North Axis {deg},Origin X-Coordinate {m},Origin Y-Coordinate {m},Origin Z-Coordinate {m},Centroid X-Coordinate {m},Centroid Y-Coordinate {m},Centroid Z-Coordinate {m},Type,Zone Multiplier,Zone List Multiplier,Minimum X {m},Maximum X {m},Minimum Y {m},Maximum Y {m},Minimum Z {m},Maximum Z {m},Ceiling Height {m},Volume {m3},Zone Inside Convection Algorithm {Simple-Detailed-CeilingDiffuser-TrombeWall},Zone Outside Convection Algorithm {Simple-Detailed-Tarp-MoWitt-DOE-2-BLAST}, Floor Area {m2},Exterior Gross Wall Area {m2},Exterior Net Wall Area {m2},Exterior Window Area {m2}, Number of Surfaces, Number of SubSurfaces, Number of Shading SubSurfaces,  Part of Total Building Area
 Zone Information, THERMAL ZONE 10,0.0,0.00,0.00,8.00,1.40,15.81,10.00,1,1,1,0.00,3.00,0.00,31.62,8.00,12.00,4.00,343.44,TARP,DOE-2,85.86,126.48,82.21,44.27,6,1,0,Yes
 Zone Information, THERMAL ZONE 21,0.0,28.62,3.00,16.00,30.22,15.81,18.00,1,1,1,28.62,31.62,0.00,31.62,16.00,20.00,4.00,343.44,TARP,DOE-2,85.86,126.48,82.21,44.27,6,1,0,Yes
 Zone Information, THERMAL ZONE 23,0.0,0.00,0.00,0.00,15.81,1.40,2.00,1,1,1,0.00,31.62,0.00,3.00,0.00,4.00,4.00,343.44,TARP,DOE-2,85.86,126.48,82.21,44.27,6,1,0,Yes
 Zone Information, THERMAL ZONE 3,0.0,3.00,28.62,16.00,15.81,30.22,18.00,1,1,1,0.00,31.62,28.62,31.62,16.00,20.00,4.00,343.44,TARP,DOE-2,85.86,126.48,82.21,44.27,6,1,0,Yes
 Zone Information, THERMAL ZONE 20,0.0,28.62,3.00,4.00,30.22,15.81,6.00,1,1,1,28.62,31.62,0.00,31.62,4.00,8.00,4.00,343.44,TARP,DOE-2,85.86,126.48,82.21,44.27,6,1,0,Yes
 Zone Information, THERMAL ZONE 14,0.0,28.62,3.00,8.00,30.22,15.81,10.00,1,1,1,28.62,31.62,0.00,31.62,8.00,12.00,4.00,343.44,TARP,DOE-2,85.86,126.48,82.21,44.27,6,1,0,Yes
 Zone Information, THERMAL ZONE 7,0.0,0.00,0.00,16.00,15.81,1.40,18.00,1,1,1,0.00,31.62,0.00,3.00,16.00,20.00,4.00,343.44,TARP,DOE-2,85.86,126.48,82.21,44.27,6,1,0,Yes
 Zone Information, THERMAL ZONE 19,0.0,3.00,3.00,16.00,15.81,15.81,18.00,1,1,1,3.00,28.62,3.00,28.62,16.00,20.00,4.00,2625.46,TARP,DOE-2,656.36,0.00,0.00,0.00,6,0,0,Yes
 Zone Information, THERMAL ZONE 6,0.0,28.62,3.00,0.00,30.22,15.81,2.00,1,1,1,28.62,31.62,0.00,31.62,0.00,4.00,4.00,343.44,TARP,DOE-2,85.86,126.48,82.21,44.27,6,1,0,Yes
 Zone Information, THERMAL ZONE 9,0.0,3.00,28.62,12.00,15.81,30.22,14.00,1,1,1,0.00,31.62,28.62,31.62,12.00,16.00,4.00,343.44,TARP,DOE-2,85.86,126.48,82.21,44.27,6,1,0,Yes
 Zone Information, THERMAL ZONE 2,0.0,3.00,3.00,8.00,15.81,15.81,10.00,1,1,1,3.00,28.62,3.00,28.62,8.00,12.00,4.00,2625.46,TARP,DOE-2,656.36,0.00,0.00,0.00,6,0,0,Yes
 Zone Information, THERMAL ZONE 18,0.0,28.62,3.00,12.00,30.22,15.81,14.00,1,1,1,28.62,31.62,0.00,31.62,12.00,16.00,4.00,343.44,TARP,DOE-2,85.86,126.48,82.21,44.27,6,1,0,Yes
 Zone Information, THERMAL ZONE 16,0.0,3.00,28.62,8.00,15.81,30.22,10.00,1,1,1,0.00,31.62,28.62,31.62,8.00,12.00,4.00,343.44,TARP,DOE-2,85.86,126.48,82.21,44.27,6,1,0,Yes
 Zone Information, THERMAL ZONE 24,0.0,3.00,3.00,4.00,15.81,15.81,6.00,1,1,1,3.00,28.62,3.00,28.62,4.00,8.00,4.00,2625.46,TARP,DOE-2,656.36,0.00,0.00,0.00,6,0,0,Yes
 Zone Information, THERMAL ZONE 17,0.0,0.00,0.00,0.00,1.40,15.81,2.00,1,1,1,0.00,3.00,0.00,31.62,0.00,4.00,4.00,343.44,TARP,DOE-2,85.86,126.48,82.21,44.27,6,1,0,Yes
 Zone Information, THERMAL ZONE 5,0.0,0.00,0.00,12.00,15.81,1.40,14.00,1,1,1,0.00,31.62,0.00,3.00,12.00,16.00,4.00,343.44,TARP,DOE-2,85.86,126.48,82.21,44.27,6,1,0,Yes
 Zone Information, THERMAL ZONE 22,0.0,0.00,0.00,16.00,1.40,15.81,18.00,1,1,1,0.00,3.00,0.00,31.62,16.00,20.00,4.00,343.44,TARP,DOE-2,85.86,126.48,82.21,44.27,6,1,0,Yes
 Zone Information, THERMAL ZONE 12,0.0,0.00,0.00,12.00,1.40,15.81,14.00,1,1,1,0.00,3.00,0.00,31.62,12.00,16.00,4.00,343.44,TARP,DOE-2,85.86,126.48,82.21,44.27,6,1,0,Yes
 Zone Information, THERMAL ZONE 8,0.0,3.00,28.62,0.00,15.81,30.22,2.00,1,1,1,0.00,31.62,28.62,31.62,0.00,4.00,4.00,343.44,TARP,DOE-2,85.86,126.48,82.21,44.27,6,1,0,Yes
 Zone Information, THERMAL ZONE 11,0.0,0.00,0.00,8.00,15.81,1.40,10.00,1,1,1,0.00,31.62,0.00,3.00,8.00,12.00,4.00,343.44,TARP,DOE-2,85.86,126.48,82.21,44.27,6,1,0,Yes
 Zone Information, THERMAL ZONE 25,0.0,0.00,0.00,4.00,15.81,1.40,6.00,1,1,1,0.00,31.62,0.00,3.00,4.00,8.00,4.00,343.44,TARP,DOE-2,85.86,126.48,82.21,44.27,6,1,0,Yes
 Zone Information, THERMAL ZONE 13,0.0,3.00,3.00,0.00,15.81,15.81,2.00,1,1,1,3.00,28.62,3.00,28.62,0.00,4.00,4.00,2625.46,TARP,DOE-2,656.36,0.00,0.00,0.00,6,0,0,Yes
 Zone Information, THERMAL ZONE 4,0.0,3.00,3.00,12.00,15.81,15.81,14.00,1,1,1,3.00,28.62,3.00,28.62,12.00,16.00,4.00,2625.46,TARP,DOE-2,656.36,0.00,0.00,0.00,6,0,0,Yes
 Zone Information, THERMAL ZONE 1,0.0,0.00,0.00,4.00,1.40,15.81,6.00,1,1,1,0.00,3.00,0.00,31.62,4.00,8.00,4.00,343.44,TARP,DOE-2,85.86,126.48,82.21,44.27,6,1,0,Yes
 Zone Information, THERMAL ZONE 15,0.0,3.00,28.62,4.00,15.81,30.22,6.00,1,1,1,0.00,31.62,28.62,31.62,4.00,8.00,4.00,343.44,TARP,DOE-2,85.86,126.48,82.21,44.27,6,1,0,Yes
! <Zone Internal Gains/Equipment Information - Nominal>,Zone Name, Floor Area {m2},# Occupants,Area per Occupant {m2/person},Occupant per Area {person/m2},Interior Lighting {W/m2},Electric Load {W/m2},Gas Load {W/m2},Other Load {W/m2},Hot Water Eq {W/m2},Steam Equipment {W/m2},Sum Loads per Area {W/m2},Outdoor Controlled Baseboard Heat
 Zone Internal Gains, THERMAL ZONE 10,85.86,4.6,18.581,5.382E-002,10.764,10.764,0.000,0.000,0.000,0.000,21.528,No
 Zone Internal Gains, THERMAL ZONE 21,85.86,4.6,18.581,5.382E-002,10.764,10.764,0.000,0.000,0.000,0.000,21.528,No
 Zone Internal Gains, THERMAL ZONE 23,85.86,4.6,18.581,5.382E-002,10.764,10.764,0.000,0.000,0.000,0.000,21.528,No
 Zone Internal Gains, THERMAL ZONE 3,85.86,4.6,18.581,5.382E-002,10.764,10.764,0.000,0.000,0.000,0.000,21.528,No
 Zone Internal Gains, THERMAL ZONE 20,85.86,4.6,18.581,5.382E-002,10.764,10.764,0.000,0.000,0.000,0.000,21.528,No
 Zone Internal Gains, THERMAL ZONE 14,85.86,4.6,18.581,5.382E-002,10.764,10.764,0.000,0.000,0.000,0.000,21.528,No
 Zone Internal Gains, THERMAL ZONE 7,85.86,4.6,18.581,5.382E-002,10.764,10.764,0.000,0.000,0.000,0.000,21.528,No
 Zone Internal Gains, THERMAL ZONE 19,656.36,35.3,18.581,5.382E-002,10.764,10.764,0.000,0.000,0.000,0.000,21.528,No
 Zone Internal Gains, THERMAL ZONE 6,85.86,4.6,18.581,5.382E-002,10.764,10.764,0.000,0.000,0.000,0.000,21.528,No
 Zone Internal Gains, THERMAL ZONE 9,85.86,4.6,18.581,5.382E-002,10.764,10.764,0.000,0.000,0.000,0.000,21.528,No
 Zone Internal Gains, THERMAL ZONE 2,656.36,35.3,18.581,5.382E-002,10.764,10.764,0.000,0.000,0.000,0.000,21.528,No
 Zone Internal Gains, THERMAL ZONE 18,85.86,4.6,18.581,5.382E-002,10.764,10.764,0.000,0.000,0.000,0.000,21.528,No
 Zone Internal Gains, THERMAL ZONE 16,85.86,4.6,18.581,5.382E-002,10.764,10.764,0.000,0.000,0.000,0.000,21.528,No
 Zone Internal Gains, THERMAL ZONE 24,656.36,35.3,18.581,5.382E-002,10.764,10.764,0.000,0.000,0.000,0.000,21.528,No
 Zone Internal Gains, THERMAL ZONE 17,85.86,4.6,18.581,5.382E-002,10.764,10.764,0.000,0.000,0.000,0.000,21.528,No
 Zone Internal Gains, THERMAL ZONE 5,85.86,4.6,18.581,5.382E-002,10.764,10.764,0.000,0.000,0.000,0.000,21.528,No
 Zone Internal Gains, THERMAL ZONE 22,85.86,4.6,18.581,5.382E-002,10.764,10.764,0.000,0.000,0.000,0.000,21.528,No
 Zone Internal Gains, THERMAL ZONE 12,85.86,4.6,18.581,5.382E-002,10.764,10.764,0.000,0.000,0.000,0.000,21.528,No
 Zone Internal Gains, THERMAL ZONE 8,85.86,4.6,18.581,5.382E-002,10.764,10.764,0.000,0.000,0.000,0.000,21.528,No
 Zone Internal Gains, THERMAL ZONE 11,85.86,4.6,18.581,5.382E-002,10.764,10.764,0.000,0.000,0.000,0.000,21.528,No
 Zone Internal Gains, THERMAL ZONE 25,85.86,4.6,18.581,5.382E-002,10.764,10.764,0.000,0.000,0.000,0.000,21.528,No
 Zone Internal Gains, THERMAL ZONE 13,656.36,35.3,18.581,5.382E-002,10.764,10.764,0.000,0.000,0.000,0.000,21.528,No
 Zone Internal Gains, THERMAL ZONE 4,656.36,35.3,18.581,5.382E-002,10.764,10.764,0.000,0.000,0.000,0.000,21.528,No
 Zone Internal Gains, THERMAL ZONE 1,85.86,4.6,18.581,5.382E-002,10.764,10.764,0.000,0.000,0.000,0.000,21.528,No
 Zone Internal Gains, THERMAL ZONE 15,85.86,4.6,18.581,5.382E-002,10.764,10.764,0.000,0.000,0.000,0.000,21.528,No
! <People Internal Gains - Nominal>,Name,Schedule Name,Zone Name,Zone Floor Area {m2},# Zone Occupants,Number of People {},People/Floor Area {person/m2},Floor Area per person {m2/person},Fraction Radiant,Fraction Convected,Sensible Fraction Calculation,Activity level,ASHRAE 55 Warnings,Carbon Dioxide Generation Rate 
 People Internal Gains, THERMAL ZONE 1 ASHRAE_90.1-2004 CLIMATEZONE 1-8 MEDIUMOFFICE WHOLEBUILDING PEOPLE,MEDIUM OFFICE_BLDG_OCC,THERMAL ZONE 1,85.86,4.6,4.6,5.382E-002,18.581,0.300,0.700,AutoCalculate,MEDIUM OFFICE_ACTIVITY,No,3.8200E-008
 People Internal Gains, THERMAL ZONE 10 ASHRAE_90.1-2004 CLIMATEZONE 1-8 MEDIUMOFFICE WHOLEBUILDING PEOPLE,MEDIUM OFFICE_BLDG_OCC,THERMAL ZONE 10,85.86,4.6,4.6,5.382E-002,18.581,0.300,0.700,AutoCalculate,MEDIUM OFFICE_ACTIVITY,No,3.8200E-008
 People Internal Gains, THERMAL ZONE 11 ASHRAE_90.1-2004 CLIMATEZONE 1-8 MEDIUMOFFICE WHOLEBUILDING PEOPLE,MEDIUM OFFICE_BLDG_OCC,THERMAL ZONE 11,85.86,4.6,4.6,5.382E-002,18.581,0.300,0.700,AutoCalculate,MEDIUM OFFICE_ACTIVITY,No,3.8200E-008
 People Internal Gains, THERMAL ZONE 12 ASHRAE_90.1-2004 CLIMATEZONE 1-8 MEDIUMOFFICE WHOLEBUILDING PEOPLE,MEDIUM OFFICE_BLDG_OCC,THERMAL ZONE 12,85.86,4.6,4.6,5.382E-002,18.581,0.300,0.700,AutoCalculate,MEDIUM OFFICE_ACTIVITY,No,3.8200E-008
 People Internal Gains, THERMAL ZONE 13 ASHRAE_90.1-2004 CLIMATEZONE 1-8 MEDIUMOFFICE WHOLEBUILDING PEOPLE,MEDIUM OFFICE_BLDG_OCC,THERMAL ZONE 13,656.36,35.3,35.3,5.382E-002,18.581,0.300,0.700,AutoCalculate,MEDIUM OFFICE_ACTIVITY,No,3.8200E-008
 People Internal Gains, THERMAL ZONE 14 ASHRAE_90.1-2004 CLIMATEZONE 1-8 MEDIUMOFFICE WHOLEBUILDING PEOPLE,MEDIUM OFFICE_BLDG_OCC,THERMAL ZONE 14,85.86,4.6,4.6,5.382E-002,18.581,0.300,0.700,AutoCalculate,MEDIUM OFFICE_ACTIVITY,No,3.8200E-008
 People Internal Gains, THERMAL ZONE 15 ASHRAE_90.1-2004 CLIMATEZONE 1-8 MEDIUMOFFICE WHOLEBUILDING PEOPLE,MEDIUM OFFICE_BLDG_OCC,THERMAL ZONE 15,85.86,4.6,4.6,5.382E-002,18.581,0.300,0.700,AutoCalculate,MEDIUM OFFICE_ACTIVITY,No,3.8200E-008
 People Internal Gains, THERMAL ZONE 16 ASHRAE_90.1-2004 CLIMATEZONE 1-8 MEDIUMOFFICE WHOLEBUILDING PEOPLE,MEDIUM OFFICE_BLDG_OCC,THERMAL ZONE 16,85.86,4.6,4.6,5.382E-002,18.581,0.300,0.700,AutoCalculate,MEDIUM OFFICE_ACTIVITY,No,3.8200E-008
 People Internal Gains, THERMAL ZONE 17 ASHRAE_90.1-2004 CLIMATEZONE 1-8 MEDIUMOFFICE WHOLEBUILDING PEOPLE,MEDIUM OFFICE_BLDG_OCC,THERMAL ZONE 17,85.86,4.6,4.6,5.382E-002,18.581,0.300,0.700,AutoCalculate,MEDIUM OFFICE_ACTIVITY,No,3.8200E-008
 People Internal Gains, THERMAL ZONE 18 ASHRAE_90.1-2004 CLIMATEZONE 1-8 MEDIUMOFFICE WHOLEBUILDING PEOPLE,MEDIUM OFFICE_BLDG_OCC,THERMAL ZONE 18,85.86,4.6,4.6,5.382E-002,18.581,0.300,0.700,AutoCalculate,MEDIUM OFFICE_ACTIVITY,No,3.8200E-008
 People Internal Gains, THERMAL ZONE 19 ASHRAE_90.1-2004 CLIMATEZONE 1-8 MEDIUMOFFICE WHOLEBUILDING PEOPLE,MEDIUM OFFICE_BLDG_OCC,THERMAL ZONE 19,656.36,35.3,35.3,5.382E-002,18.581,0.300,0.700,AutoCalculate,MEDIUM OFFICE_ACTIVITY,No,3.8200E-008
 People Internal Gains, THERMAL ZONE 2 ASHRAE_90.1-2004 CLIMATEZONE 1-8 MEDIUMOFFICE WHOLEBUILDING PEOPLE,MEDIUM OFFICE_BLDG_OCC,THERMAL ZONE 2,656.36,35.3,35.3,5.382E-002,18.581,0.300,0.700,AutoCalculate,MEDIUM OFFICE_ACTIVITY,No,3.8200E-008
 People Internal Gains, THERMAL ZONE 20 ASHRAE_90.1-2004 CLIMATEZONE 1-8 MEDIUMOFFICE WHOLEBUILDING PEOPLE,MEDIUM OFFICE_BLDG_OCC,THERMAL ZONE 20,85.86,4.6,4.6,5.382E-002,18.581,0.300,0.700,AutoCalculate,MEDIUM OFFICE_ACTIVITY,No,3.8200E-008
 People Internal Gains, THERMAL ZONE 21 ASHRAE_90.1-2004 CLIMATEZONE 1-8 MEDIUMOFFICE WHOLEBUILDING PEOPLE,MEDIUM OFFICE_BLDG_OCC,THERMAL ZONE 21,85.86,4.6,4.6,5.382E-002,18.581,0.300,0.700,AutoCalculate,MEDIUM OFFICE_ACTIVITY,No,3.8200E-008
 People Internal Gains, THERMAL ZONE 22 ASHRAE_90.1-2004 CLIMATEZONE 1-8 MEDIUMOFFICE WHOLEBUILDING PEOPLE,MEDIUM OFFICE_BLDG_OCC,THERMAL ZONE 22,85.86,4.6,4.6,5.382E-002,18.581,0.300,0.700,AutoCalculate,MEDIUM OFFICE_ACTIVITY,No,3.8200E-008
 People Internal Gains, THERMAL ZONE 23 ASHRAE_90.1-2004 CLIMATEZONE 1-8 MEDIUMOFFICE WHOLEBUILDING PEOPLE,MEDIUM OFFICE_BLDG_OCC,THERMAL ZONE 23,85.86,4.6,4.6,5.382E-002,18.581,0.300,0.700,AutoCalculate,MEDIUM OFFICE_ACTIVITY,No,3.8200E-008
 People Internal Gains, THERMAL ZONE 24 ASHRAE_90.1-2004 CLIMATEZONE 1-8 MEDIUMOFFICE WHOLEBUILDING PEOPLE,MEDIUM OFFICE_BLDG_OCC,THERMAL ZONE 24,656.36,35.3,35.3,5.382E-002,18.581,0.300,0.700,AutoCalculate,MEDIUM OFFICE_ACTIVITY,No,3.8200E-008
 People Internal Gains, THERMAL ZONE 25 ASHRAE_90.1-2004 CLIMATEZONE 1-8 MEDIUMOFFICE WHOLEBUILDING PEOPLE,MEDIUM OFFICE_BLDG_OCC,THERMAL ZONE 25,85.86,4.6,4.6,5.382E-002,18.581,0.300,0.700,AutoCalculate,MEDIUM OFFICE_ACTIVITY,No,3.8200E-008
 People Internal Gains, THERMAL ZONE 3 ASHRAE_90.1-2004 CLIMATEZONE 1-8 MEDIUMOFFICE WHOLEBUILDING PEOPLE,MEDIUM OFFICE_BLDG_OCC,THERMAL ZONE 3,85.86,4.6,4.6,5.382E-002,18.581,0.300,0.700,AutoCalculate,MEDIUM OFFICE_ACTIVITY,No,3.8200E-008
 People Internal Gains, THERMAL ZONE 4 ASHRAE_90.1-2004 CLIMATEZONE 1-8 MEDIUMOFFICE WHOLEBUILDING PEOPLE,MEDIUM OFFICE_BLDG_OCC,THERMAL ZONE 4,656.36,35.3,35.3,5.382E-002,18.581,0.300,0.700,AutoCalculate,MEDIUM OFFICE_ACTIVITY,No,3.8200E-008
 People Internal Gains, THERMAL ZONE 5 ASHRAE_90.1-2004 CLIMATEZONE 1-8 MEDIUMOFFICE WHOLEBUILDING PEOPLE,MEDIUM OFFICE_BLDG_OCC,THERMAL ZONE 5,85.86,4.6,4.6,5.382E-002,18.581,0.300,0.700,AutoCalculate,MEDIUM OFFICE_ACTIVITY,No,3.8200E-008
 People Internal Gains, THERMAL ZONE 6 ASHRAE_90.1-2004 CLIMATEZONE 1-8 MEDIUMOFFICE WHOLEBUILDING PEOPLE,MEDIUM OFFICE_BLDG_OCC,THERMAL ZONE 6,85.86,4.6,4.6,5.382E-002,18.581,0.300,0.700,AutoCalculate,MEDIUM OFFICE_ACTIVITY,No,3.8200E-008
 People Internal Gains, THERMAL ZONE 7 ASHRAE_90.1-2004 CLIMATEZONE 1-8 MEDIUMOFFICE WHOLEBUILDING PEOPLE,MEDIUM OFFICE_BLDG_OCC,THERMAL ZONE 7,85.86,4.6,4.6,5.382E-002,18.581,0.300,0.700,AutoCalculate,MEDIUM OFFICE_ACTIVITY,No,3.8200E-008
 People Internal Gains, THERMAL ZONE 8 ASHRAE_90.1-2004 CLIMATEZONE 1-8 MEDIUMOFFICE WHOLEBUILDING PEOPLE,MEDIUM OFFICE_BLDG_OCC,THERMAL ZONE 8,85.86,4.6,4.6,5.382E-002,18.581,0.300,0.700,AutoCalculate,MEDIUM OFFICE_ACTIVITY,No,3.8200E-008
 People Internal Gains, THERMAL ZONE 9 ASHRAE_90.1-2004 CLIMATEZONE 1-8 MEDIUMOFFICE WHOLEBUILDING PEOPLE,MEDIUM OFFICE_BLDG_OCC,THERMAL ZONE 9,85.86,4.6,4.6,5.382E-002,18.581,0.300,0.700,AutoCalculate,MEDIUM OFFICE_ACTIVITY,No,3.8200E-008
! <Lights Internal Gains - Nominal>,Name,Schedule Name,Zone Name,Zone Floor Area {m2},# Zone Occupants,Lighting Level {W},Lights/Floor Area {W/m2},Lights per person {W/person},Fraction Return Air,Fraction Radiant,Fraction Short Wave,Fraction Convected,Fraction Replaceable,EndUse Category
 Lights Internal Gains, THERMAL ZONE 1 ASHRAE_90.1-2004 CLIMATEZONE 1-8 MEDIUMOFFICE WHOLEBUILDING LIGHTS,MEDIUM OFFICE_BLDG_LIGHT,THERMAL ZONE 1,85.86,4.6,924.177,10.764,200.000,0.000,0.000,0.000,1.000,1.000,General
 Lights Internal Gains, THERMAL ZONE 10 ASHRAE_90.1-2004 CLIMATEZONE 1-8 MEDIUMOFFICE WHOLEBUILDING LIGHTS,MEDIUM OFFICE_BLDG_LIGHT,THERMAL ZONE 10,85.86,4.6,924.177,10.764,200.000,0.000,0.000,0.000,1.000,1.000,General
 Lights Internal Gains, THERMAL ZONE 11 ASHRAE_90.1-2004 CLIMATEZONE 1-8 MEDIUMOFFICE WHOLEBUILDING LIGHTS,MEDIUM OFFICE_BLDG_LIGHT,THERMAL ZONE 11,85.86,4.6,924.177,10.764,200.000,0.000,0.000,0.000,1.000,1.000,General
 Lights Internal Gains, THERMAL ZONE 12 ASHRAE_90.1-2004 CLIMATEZONE 1-8 MEDIUMOFFICE WHOLEBUILDING LIGHTS,MEDIUM OFFICE_BLDG_LIGHT,THERMAL ZONE 12,85.86,4.6,924.177,10.764,200.000,0.000,0.000,0.000,1.000,1.000,General
 Lights Internal Gains, THERMAL ZONE 13 ASHRAE_90.1-2004 CLIMATEZONE 1-8 MEDIUMOFFICE WHOLEBUILDING LIGHTS,MEDIUM OFFICE_BLDG_LIGHT,THERMAL ZONE 13,656.36,35.3,7065.050,10.764,200.000,0.000,0.000,0.000,1.000,1.000,General
 Lights Internal Gains, THERMAL ZONE 14 ASHRAE_90.1-2004 CLIMATEZONE 1-8 MEDIUMOFFICE WHOLEBUILDING LIGHTS,MEDIUM OFFICE_BLDG_LIGHT,THERMAL ZONE 14,85.86,4.6,924.177,10.764,200.000,0.000,0.000,0.000,1.000,1.000,General
 Lights Internal Gains, THERMAL ZONE 15 ASHRAE_90.1-2004 CLIMATEZONE 1-8 MEDIUMOFFICE WHOLEBUILDING LIGHTS,MEDIUM OFFICE_BLDG_LIGHT,THERMAL ZONE 15,85.86,4.6,924.177,10.764,200.000,0.000,0.000,0.000,1.000,1.000,General
 Lights Internal Gains, THERMAL ZONE 16 ASHRAE_90.1-2004 CLIMATEZONE 1-8 MEDIUMOFFICE WHOLEBUILDING LIGHTS,MEDIUM OFFICE_BLDG_LIGHT,THERMAL ZONE 16,85.86,4.6,924.177,10.764,200.000,0.000,0.000,0.000,1.000,1.000,General
 Lights Internal Gains, THERMAL ZONE 17 ASHRAE_90.1-2004 CLIMATEZONE 1-8 MEDIUMOFFICE WHOLEBUILDING LIGHTS,MEDIUM OFFICE_BLDG_LIGHT,THERMAL ZONE 17,85.86,4.6,924.177,10.764,200.000,0.000,0.000,0.000,1.000,1.000,General
 Lights Internal Gains, THERMAL ZONE 18 ASHRAE_90.1-2004 CLIMATEZONE 1-8 MEDIUMOFFICE WHOLEBUILDING LIGHTS,MEDIUM OFFICE_BLDG_LIGHT,THERMAL ZONE 18,85.86,4.6,924.177,10.764,200.000,0.000,0.000,0.000,1.000,1.000,General
 Lights Internal Gains, THERMAL ZONE 19 ASHRAE_90.1-2004 CLIMATEZONE 1-8 MEDIUMOFFICE WHOLEBUILDING LIGHTS,MEDIUM OFFICE_BLDG_LIGHT,THERMAL ZONE 19,656.36,35.3,7065.050,10.764,200.000,0.000,0.000,0.000,1.000,1.000,General
 Lights Internal Gains, THERMAL ZONE 2 ASHRAE_90.1-2004 CLIMATEZONE 1-8 MEDIUMOFFICE WHOLEBUILDING LIGHTS,MEDIUM OFFICE_BLDG_LIGHT,THERMAL ZONE 2,656.36,35.3,7065.050,10.764,200.000,0.000,0.000,0.000,1.000,1.000,General
 Lights Internal Gains, THERMAL ZONE 20 ASHRAE_90.1-2004 CLIMATEZONE 1-8 MEDIUMOFFICE WHOLEBUILDING LIGHTS,MEDIUM OFFICE_BLDG_LIGHT,THERMAL ZONE 20,85.86,4.6,924.177,10.764,200.000,0.000,0.000,0.000,1.000,1.000,General
 Lights Internal Gains, THERMAL ZONE 21 ASHRAE_90.1-2004 CLIMATEZONE 1-8 MEDIUMOFFICE WHOLEBUILDING LIGHTS,MEDIUM OFFICE_BLDG_LIGHT,THERMAL ZONE 21,85.86,4.6,924.177,10.764,200.000,0.000,0.000,0.000,1.000,1.000,General
 Lights Internal Gains, THERMAL ZONE 22 ASHRAE_90.1-2004 CLIMATEZONE 1-8 MEDIUMOFFICE WHOLEBUILDING LIGHTS,MEDIUM OFFICE_BLDG_LIGHT,THERMAL ZONE 22,85.86,4.6,924.177,10.764,200.000,0.000,0.000,0.000,1.000,1.000,General
 Lights Internal Gains, THERMAL ZONE 23 ASHRAE_90.1-2004 CLIMATEZONE 1-8 MEDIUMOFFICE WHOLEBUILDING LIGHTS,MEDIUM OFFICE_BLDG_LIGHT,THERMAL ZONE 23,85.86,4.6,924.177,10.764,200.000,0.000,0.000,0.000,1.000,1.000,General
 Lights Internal Gains, THERMAL ZONE 24 ASHRAE_90.1-2004 CLIMATEZONE 1-8 MEDIUMOFFICE WHOLEBUILDING LIGHTS,MEDIUM OFFICE_BLDG_LIGHT,THERMAL ZONE 24,656.36,35.3,7065.050,10.764,200.000,0.000,0.000,0.000,1.000,1.000,General
 Lights Internal Gains, THERMAL ZONE 25 ASHRAE_90.1-2004 CLIMATEZONE 1-8 MEDIUMOFFICE WHOLEBUILDING LIGHTS,MEDIUM OFFICE_BLDG_LIGHT,THERMAL ZONE 25,85.86,4.6,924.177,10.764,200.000,0.000,0.000,0.000,1.000,1.000,General
 Lights Internal Gains, THERMAL ZONE 3 ASHRAE_90.1-2004 CLIMATEZONE 1-8 MEDIUMOFFICE WHOLEBUILDING LIGHTS,MEDIUM OFFICE_BLDG_LIGHT,THERMAL ZONE 3,85.86,4.6,924.177,10.764,200.000,0.000,0.000,0.000,1.000,1.000,General
 Lights Internal Gains, THERMAL ZONE 4 ASHRAE_90.1-2004 CLIMATEZONE 1-8 MEDIUMOFFICE WHOLEBUILDING LIGHTS,MEDIUM OFFICE_BLDG_LIGHT,THERMAL ZONE 4,656.36,35.3,7065.050,10.764,200.000,0.000,0.000,0.000,1.000,1.000,General
 Lights Internal Gains, THERMAL ZONE 5 ASHRAE_90.1-2004 CLIMATEZONE 1-8 MEDIUMOFFICE WHOLEBUILDING LIGHTS,MEDIUM OFFICE_BLDG_LIGHT,THERMAL ZONE 5,85.86,4.6,924.177,10.764,200.000,0.000,0.000,0.000,1.000,1.000,General
 Lights Internal Gains, THERMAL ZONE 6 ASHRAE_90.1-2004 CLIMATEZONE 1-8 MEDIUMOFFICE WHOLEBUILDING LIGHTS,MEDIUM OFFICE_BLDG_LIGHT,THERMAL ZONE 6,85.86,4.6,924.177,10.764,200.000,0.000,0.000,0.000,1.000,1.000,General
 Lights Internal Gains, THERMAL ZONE 7 ASHRAE_90.1-2004 CLIMATEZONE 1-8 MEDIUMOFFICE WHOLEBUILDING LIGHTS,MEDIUM OFFICE_BLDG_LIGHT,THERMAL ZONE 7,85.86,4.6,924.177,10.764,200.000,0.000,0.000,0.000,1.000,1.000,General
 Lights Internal Gains, THERMAL ZONE 8 ASHRAE_90.1-2004 CLIMATEZONE 1-8 MEDIUMOFFICE WHOLEBUILDING LIGHTS,MEDIUM OFFICE_BLDG_LIGHT,THERMAL ZONE 8,85.86,4.6,924.177,10.764,200.000,0.000,0.000,0.000,1.000,1.000,General
 Lights Internal Gains, THERMAL ZONE 9 ASHRAE_90.1-2004 CLIMATEZONE 1-8 MEDIUMOFFICE WHOLEBUILDING LIGHTS,MEDIUM OFFICE_BLDG_LIGHT,THERMAL ZONE 9,85.86,4.6,924.177,10.764,200.000,0.000,0.000,0.000,1.000,1.000,General
! <ElectricEquipment Internal Gains - Nominal>,Name,Schedule Name,Zone Name,Zone Floor Area {m2},# Zone Occupants,Equipment Level {W},Equipment/Floor Area {W/m2},Equipment per person {W/person},Fraction Latent,Fraction Radiant,Fraction Lost,Fraction Convected,EndUse SubCategory
 ElectricEquipment Internal Gains, THERMAL ZONE 1 ASHRAE_90.1-2004 CLIMATEZONE 1-8 MEDIUMOFFICE WHOLEBUILDING ELECTRIC EQUIPMENT,MEDIUM OFFICE_BLDG_EQUIP,THERMAL ZONE 1,85.86,4.6,924.177,10.764,200.000,0.000,0.000,0.000,1.000,General
 ElectricEquipment Internal Gains, THERMAL ZONE 10 ASHRAE_90.1-2004 CLIMATEZONE 1-8 MEDIUMOFFICE WHOLEBUILDING ELECTRIC EQUIPMENT,MEDIUM OFFICE_BLDG_EQUIP,THERMAL ZONE 10,85.86,4.6,924.177,10.764,200.000,0.000,0.000,0.000,1.000,General
 ElectricEquipment Internal Gains, THERMAL ZONE 11 ASHRAE_90.1-2004 CLIMATEZONE 1-8 MEDIUMOFFICE WHOLEBUILDING ELECTRIC EQUIPMENT,MEDIUM OFFICE_BLDG_EQUIP,THERMAL ZONE 11,85.86,4.6,924.177,10.764,200.000,0.000,0.000,0.000,1.000,General
 ElectricEquipment Internal Gains, THERMAL ZONE 12 ASHRAE_90.1-2004 CLIMATEZONE 1-8 MEDIUMOFFICE WHOLEBUILDING ELECTRIC EQUIPMENT,MEDIUM OFFICE_BLDG_EQUIP,THERMAL ZONE 12,85.86,4.6,924.177,10.764,200.000,0.000,0.000,0.000,1.000,General
 ElectricEquipment Internal Gains, THERMAL ZONE 13 ASHRAE_90.1-2004 CLIMATEZONE 1-8 MEDIUMOFFICE WHOLEBUILDING ELECTRIC EQUIPMENT,MEDIUM OFFICE_BLDG_EQUIP,THERMAL ZONE 13,656.36,35.3,7065.050,10.764,200.000,0.000,0.000,0.000,1.000,General
 ElectricEquipment Internal Gains, THERMAL ZONE 14 ASHRAE_90.1-2004 CLIMATEZONE 1-8 MEDIUMOFFICE WHOLEBUILDING ELECTRIC EQUIPMENT,MEDIUM OFFICE_BLDG_EQUIP,THERMAL ZONE 14,85.86,4.6,924.177,10.764,200.000,0.000,0.000,0.000,1.000,General
 ElectricEquipment Internal Gains, THERMAL ZONE 15 ASHRAE_90.1-2004 CLIMATEZONE 1-8 MEDIUMOFFICE WHOLEBUILDING ELECTRIC EQUIPMENT,MEDIUM OFFICE_BLDG_EQUIP,THERMAL ZONE 15,85.86,4.6,924.177,10.764,200.000,0.000,0.000,0.000,1.000,General
 ElectricEquipment Internal Gains, THERMAL ZONE 16 ASHRAE_90.1-2004 CLIMATEZONE 1-8 MEDIUMOFFICE WHOLEBUILDING ELECTRIC EQUIPMENT,MEDIUM OFFICE_BLDG_EQUIP,THERMAL ZONE 16,85.86,4.6,924.177,10.764,200.000,0.000,0.000,0.000,1.000,General
 ElectricEquipment Internal Gains, THERMAL ZONE 17 ASHRAE_90.1-2004 CLIMATEZONE 1-8 MEDIUMOFFICE WHOLEBUILDING ELECTRIC EQUIPMENT,MEDIUM OFFICE_BLDG_EQUIP,THERMAL ZONE 17,85.86,4.6,924.177,10.764,200.000,0.000,0.000,0.000,1.000,General
 ElectricEquipment Internal Gains, THERMAL ZONE 18 ASHRAE_90.1-2004 CLIMATEZONE 1-8 MEDIUMOFFICE WHOLEBUILDING ELECTRIC EQUIPMENT,MEDIUM OFFICE_BLDG_EQUIP,THERMAL ZONE 18,85.86,4.6,924.177,10.764,200.000,0.000,0.000,0.000,1.000,General
 ElectricEquipment Internal Gains, THERMAL ZONE 19 ASHRAE_90.1-2004 CLIMATEZONE 1-8 MEDIUMOFFICE WHOLEBUILDING ELECTRIC EQUIPMENT,MEDIUM OFFICE_BLDG_EQUIP,THERMAL ZONE 19,656.36,35.3,7065.050,10.764,200.000,0.000,0.000,0.000,1.000,General
 ElectricEquipment Internal Gains, THERMAL ZONE 2 ASHRAE_90.1-2004 CLIMATEZONE 1-8 MEDIUMOFFICE WHOLEBUILDING ELECTRIC EQUIPMENT,MEDIUM OFFICE_BLDG_EQUIP,THERMAL ZONE 2,656.36,35.3,7065.050,10.764,200.000,0.000,0.000,0.000,1.000,General
 ElectricEquipment Internal Gains, THERMAL ZONE 20 ASHRAE_90.1-2004 CLIMATEZONE 1-8 MEDIUMOFFICE WHOLEBUILDING ELECTRIC EQUIPMENT,MEDIUM OFFICE_BLDG_EQUIP,THERMAL ZONE 20,85.86,4.6,924.177,10.764,200.000,0.000,0.000,0.000,1.000,General
 ElectricEquipment Internal Gains, THERMAL ZONE 21 ASHRAE_90.1-2004 CLIMATEZONE 1-8 MEDIUMOFFICE WHOLEBUILDING ELECTRIC EQUIPMENT,MEDIUM OFFICE_BLDG_EQUIP,THERMAL ZONE 21,85.86,4.6,924.177,10.764,200.000,0.000,0.000,0.000,1.000,General
 ElectricEquipment Internal Gains, THERMAL ZONE 22 ASHRAE_90.1-2004 CLIMATEZONE 1-8 MEDIUMOFFICE WHOLEBUILDING ELECTRIC EQUIPMENT,MEDIUM OFFICE_BLDG_EQUIP,THERMAL ZONE 22,85.86,4.6,924.177,10.764,200.000,0.000,0.000,0.000,1.000,General
 ElectricEquipment Internal Gains, THERMAL ZONE 23 ASHRAE_90.1-2004 CLIMATEZONE 1-8 MEDIUMOFFICE WHOLEBUILDING ELECTRIC EQUIPMENT,MEDIUM OFFICE_BLDG_EQUIP,THERMAL ZONE 23,85.86,4.6,924.177,10.764,200.000,0.000,0.000,0.000,1.000,General
 ElectricEquipment Internal Gains, THERMAL ZONE 24 ASHRAE_90.1-2004 CLIMATEZONE 1-8 MEDIUMOFFICE WHOLEBUILDING ELECTRIC EQUIPMENT,MEDIUM OFFICE_BLDG_EQUIP,THERMAL ZONE 24,656.36,35.3,7065.050,10.764,200.000,0.000,0.000,0.000,1.000,General
 ElectricEquipment Internal Gains, THERMAL ZONE 25 ASHRAE_90.1-2004 CLIMATEZONE 1-8 MEDIUMOFFICE WHOLEBUILDING ELECTRIC EQUIPMENT,MEDIUM OFFICE_BLDG_EQUIP,THERMAL ZONE 25,85.86,4.6,924.177,10.764,200.000,0.000,0.000,0.000,1.000,General
 ElectricEquipment Internal Gains, THERMAL ZONE 3 ASHRAE_90.1-2004 CLIMATEZONE 1-8 MEDIUMOFFICE WHOLEBUILDING ELECTRIC EQUIPMENT,MEDIUM OFFICE_BLDG_EQUIP,THERMAL ZONE 3,85.86,4.6,924.177,10.764,200.000,0.000,0.000,0.000,1.000,General
 ElectricEquipment Internal Gains, THERMAL ZONE 4 ASHRAE_90.1-2004 CLIMATEZONE 1-8 MEDIUMOFFICE WHOLEBUILDING ELECTRIC EQUIPMENT,MEDIUM OFFICE_BLDG_EQUIP,THERMAL ZONE 4,656.36,35.3,7065.050,10.764,200.000,0.000,0.000,0.000,1.000,General
 ElectricEquipment Internal Gains, THERMAL ZONE 5 ASHRAE_90.1-2004 CLIMATEZONE 1-8 MEDIUMOFFICE WHOLEBUILDING ELECTRIC EQUIPMENT,MEDIUM OFFICE_BLDG_EQUIP,THERMAL ZONE 5,85.86,4.6,924.177,10.764,200.000,0.000,0.000,0.000,1.000,General
 ElectricEquipment Internal Gains, THERMAL ZONE 6 ASHRAE_90.1-2004 CLIMATEZONE 1-8 MEDIUMOFFICE WHOLEBUILDING ELECTRIC EQUIPMENT,MEDIUM OFFICE_BLDG_EQUIP,THERMAL ZONE 6,85.86,4.6,924.177,10.764,200.000,0.000,0.000,0.000,1.000,General
 ElectricEquipment Internal Gains, THERMAL ZONE 7 ASHRAE_90.1-2004 CLIMATEZONE 1-8 MEDIUMOFFICE WHOLEBUILDING ELECTRIC EQUIPMENT,MEDIUM OFFICE_BLDG_EQUIP,THERMAL ZONE 7,85.86,4.6,924.177,10.764,200.000,0.000,0.000,0.000,1.000,General
 ElectricEquipment Internal Gains, THERMAL ZONE 8 ASHRAE_90.1-2004 CLIMATEZONE 1-8 MEDIUMOFFICE WHOLEBUILDING ELECTRIC EQUIPMENT,MEDIUM OFFICE_BLDG_EQUIP,THERMAL ZONE 8,85.86,4.6,924.177,10.764,200.000,0.000,0.000,0.000,1.000,General
 ElectricEquipment Internal Gains, THERMAL ZONE 9 ASHRAE_90.1-2004 CLIMATEZONE 1-8 MEDIUMOFFICE WHOLEBUILDING ELECTRIC EQUIPMENT,MEDIUM OFFICE_BLDG_EQUIP,THERMAL ZONE 9,85.86,4.6,924.177,10.764,200.000,0.000,0.000,0.000,1.000,General
! <Shadowing/Sun Position Calculations> [Annual Simulations], Value {days}, Allowable Number Figures in Shadow Overlap {}, Polygon Clipping Algorithm, Sky Diffuse Modeling Algorithm
Shadowing/Sun Position Calculations,20,15000,SutherlandHodgman,SimpleSkyDiffuseModeling
! <Infiltration Airflow Stats - Nominal>,Name,Schedule Name,Zone Name, Zone Floor Area {m2}, # Zone Occupants,Design Volume Flow Rate {m3/s},Volume Flow Rate/Floor Area {m3/s/m2},Volume Flow Rate/Exterior Surface Area {m3/s/m2},ACH - Air Changes per Hour,Equation A - Constant Term Coefficient {},Equation B - Temperature Term Coefficient {1/C},Equation C - Velocity Term Coefficient {s/m}, Equation D - Velocity Squared Term Coefficient {s2/m2}
 ZoneInfiltration Airflow Stats, THERMAL ZONE 1 ASHRAE_90.1-2004 CLIMATEZONE 1-8 MEDIUMOFFICE WHOLEBUILDING INFILTRATION,MEDIUM OFFICE_INFIL_QUARTER_ON,THERMAL ZONE 1,85.86,4.6,3.823E-002,4.453E-004,3.023E-004,0.401,1.000,0.000,0.000,0.000
 ZoneInfiltration Airflow Stats, THERMAL ZONE 10 ASHRAE_90.1-2004 CLIMATEZONE 1-8 MEDIUMOFFICE WHOLEBUILDING INFILTRATION,MEDIUM OFFICE_INFIL_QUARTER_ON,THERMAL ZONE 10,85.86,4.6,3.823E-002,4.453E-004,3.023E-004,0.401,1.000,0.000,0.000,0.000
 ZoneInfiltration Airflow Stats, THERMAL ZONE 11 ASHRAE_90.1-2004 CLIMATEZONE 1-8 MEDIUMOFFICE WHOLEBUILDING INFILTRATION,MEDIUM OFFICE_INFIL_QUARTER_ON,THERMAL ZONE 11,85.86,4.6,3.823E-002,4.453E-004,3.023E-004,0.401,1.000,0.000,0.000,0.000
 ZoneInfiltration Airflow Stats, THERMAL ZONE 12 ASHRAE_90.1-2004 CLIMATEZONE 1-8 MEDIUMOFFICE WHOLEBUILDING INFILTRATION,MEDIUM OFFICE_INFIL_QUARTER_ON,THERMAL ZONE 12,85.86,4.6,3.823E-002,4.453E-004,3.023E-004,0.401,1.000,0.000,0.000,0.000
 ZoneInfiltration Airflow Stats, THERMAL ZONE 13 ASHRAE_90.1-2004 CLIMATEZONE 1-8 MEDIUMOFFICE WHOLEBUILDING INFILTRATION,MEDIUM OFFICE_INFIL_QUARTER_ON,THERMAL ZONE 13,656.36,35.3,0.000,0.000,N/A,0.000,1.000,0.000,0.000,0.000
 ZoneInfiltration Airflow Stats, THERMAL ZONE 14 ASHRAE_90.1-2004 CLIMATEZONE 1-8 MEDIUMOFFICE WHOLEBUILDING INFILTRATION,MEDIUM OFFICE_INFIL_QUARTER_ON,THERMAL ZONE 14,85.86,4.6,3.823E-002,4.453E-004,3.023E-004,0.401,1.000,0.000,0.000,0.000
 ZoneInfiltration Airflow Stats, THERMAL ZONE 15 ASHRAE_90.1-2004 CLIMATEZONE 1-8 MEDIUMOFFICE WHOLEBUILDING INFILTRATION,MEDIUM OFFICE_INFIL_QUARTER_ON,THERMAL ZONE 15,85.86,4.6,3.823E-002,4.453E-004,3.023E-004,0.401,1.000,0.000,0.000,0.000
 ZoneInfiltration Airflow Stats, THERMAL ZONE 16 ASHRAE_90.1-2004 CLIMATEZONE 1-8 MEDIUMOFFICE WHOLEBUILDING INFILTRATION,MEDIUM OFFICE_INFIL_QUARTER_ON,THERMAL ZONE 16,85.86,4.6,3.823E-002,4.453E-004,3.023E-004,0.401,1.000,0.000,0.000,0.000
 ZoneInfiltration Airflow Stats, THERMAL ZONE 17 ASHRAE_90.1-2004 CLIMATEZONE 1-8 MEDIUMOFFICE WHOLEBUILDING INFILTRATION,MEDIUM OFFICE_INFIL_QUARTER_ON,THERMAL ZONE 17,85.86,4.6,3.823E-002,4.453E-004,3.023E-004,0.401,1.000,0.000,0.000,0.000
 ZoneInfiltration Airflow Stats, THERMAL ZONE 18 ASHRAE_90.1-2004 CLIMATEZONE 1-8 MEDIUMOFFICE WHOLEBUILDING INFILTRATION,MEDIUM OFFICE_INFIL_QUARTER_ON,THERMAL ZONE 18,85.86,4.6,3.823E-002,4.453E-004,3.023E-004,0.401,1.000,0.000,0.000,0.000
 ZoneInfiltration Airflow Stats, THERMAL ZONE 19 ASHRAE_90.1-2004 CLIMATEZONE 1-8 MEDIUMOFFICE WHOLEBUILDING INFILTRATION,MEDIUM OFFICE_INFIL_QUARTER_ON,THERMAL ZONE 19,656.36,35.3,0.198,3.023E-004,3.023E-004,0.272,1.000,0.000,0.000,0.000
 ZoneInfiltration Airflow Stats, THERMAL ZONE 2 ASHRAE_90.1-2004 CLIMATEZONE 1-8 MEDIUMOFFICE WHOLEBUILDING INFILTRATION,MEDIUM OFFICE_INFIL_QUARTER_ON,THERMAL ZONE 2,656.36,35.3,0.000,0.000,N/A,0.000,1.000,0.000,0.000,0.000
 ZoneInfiltration Airflow Stats, THERMAL ZONE 20 ASHRAE_90.1-2004 CLIMATEZONE 1-8 MEDIUMOFFICE WHOLEBUILDING INFILTRATION,MEDIUM OFFICE_INFIL_QUARTER_ON,THERMAL ZONE 20,85.86,4.6,3.823E-002,4.453E-004,3.023E-004,0.401,1.000,0.000,0.000,0.000
 ZoneInfiltration Airflow Stats, THERMAL ZONE 21 ASHRAE_90.1-2004 CLIMATEZONE 1-8 MEDIUMOFFICE WHOLEBUILDING INFILTRATION,MEDIUM OFFICE_INFIL_QUARTER_ON,THERMAL ZONE 21,85.86,4.6,6.418E-002,7.475E-004,3.023E-004,0.673,1.000,0.000,0.000,0.000
 ZoneInfiltration Airflow Stats, THERMAL ZONE 22 ASHRAE_90.1-2004 CLIMATEZONE 1-8 MEDIUMOFFICE WHOLEBUILDING INFILTRATION,MEDIUM OFFICE_INFIL_QUARTER_ON,THERMAL ZONE 22,85.86,4.6,6.418E-002,7.475E-004,3.023E-004,0.673,1.000,0.000,0.000,0.000
 ZoneInfiltration Airflow Stats, THERMAL ZONE 23 ASHRAE_90.1-2004 CLIMATEZONE 1-8 MEDIUMOFFICE WHOLEBUILDING INFILTRATION,MEDIUM OFFICE_INFIL_QUARTER_ON,THERMAL ZONE 23,85.86,4.6,3.823E-002,4.453E-004,3.023E-004,0.401,1.000,0.000,0.000,0.000
 ZoneInfiltration Airflow Stats, THERMAL ZONE 24 ASHRAE_90.1-2004 CLIMATEZONE 1-8 MEDIUMOFFICE WHOLEBUILDING INFILTRATION,MEDIUM OFFICE_INFIL_QUARTER_ON,THERMAL ZONE 24,656.36,35.3,0.000,0.000,N/A,0.000,1.000,0.000,0.000,0.000
 ZoneInfiltration Airflow Stats, THERMAL ZONE 25 ASHRAE_90.1-2004 CLIMATEZONE 1-8 MEDIUMOFFICE WHOLEBUILDING INFILTRATION,MEDIUM OFFICE_INFIL_QUARTER_ON,THERMAL ZONE 25,85.86,4.6,3.823E-002,4.453E-004,3.023E-004,0.401,1.000,0.000,0.000,0.000
 ZoneInfiltration Airflow Stats, THERMAL ZONE 3 ASHRAE_90.1-2004 CLIMATEZONE 1-8 MEDIUMOFFICE WHOLEBUILDING INFILTRATION,MEDIUM OFFICE_INFIL_QUARTER_ON,THERMAL ZONE 3,85.86,4.6,6.418E-002,7.475E-004,3.023E-004,0.673,1.000,0.000,0.000,0.000
 ZoneInfiltration Airflow Stats, THERMAL ZONE 4 ASHRAE_90.1-2004 CLIMATEZONE 1-8 MEDIUMOFFICE WHOLEBUILDING INFILTRATION,MEDIUM OFFICE_INFIL_QUARTER_ON,THERMAL ZONE 4,656.36,35.3,0.000,0.000,N/A,0.000,1.000,0.000,0.000,0.000
 ZoneInfiltration Airflow Stats, THERMAL ZONE 5 ASHRAE_90.1-2004 CLIMATEZONE 1-8 MEDIUMOFFICE WHOLEBUILDING INFILTRATION,MEDIUM OFFICE_INFIL_QUARTER_ON,THERMAL ZONE 5,85.86,4.6,3.823E-002,4.453E-004,3.023E-004,0.401,1.000,0.000,0.000,0.000
 ZoneInfiltration Airflow Stats, THERMAL ZONE 6 ASHRAE_90.1-2004 CLIMATEZONE 1-8 MEDIUMOFFICE WHOLEBUILDING INFILTRATION,MEDIUM OFFICE_INFIL_QUARTER_ON,THERMAL ZONE 6,85.86,4.6,3.823E-002,4.453E-004,3.023E-004,0.401,1.000,0.000,0.000,0.000
 ZoneInfiltration Airflow Stats, THERMAL ZONE 7 ASHRAE_90.1-2004 CLIMATEZONE 1-8 MEDIUMOFFICE WHOLEBUILDING INFILTRATION,MEDIUM OFFICE_INFIL_QUARTER_ON,THERMAL ZONE 7,85.86,4.6,6.418E-002,7.475E-004,3.023E-004,0.673,1.000,0.000,0.000,0.000
 ZoneInfiltration Airflow Stats, THERMAL ZONE 8 ASHRAE_90.1-2004 CLIMATEZONE 1-8 MEDIUMOFFICE WHOLEBUILDING INFILTRATION,MEDIUM OFFICE_INFIL_QUARTER_ON,THERMAL ZONE 8,85.86,4.6,3.823E-002,4.453E-004,3.023E-004,0.401,1.000,0.000,0.000,0.000
 ZoneInfiltration Airflow Stats, THERMAL ZONE 9 ASHRAE_90.1-2004 CLIMATEZONE 1-8 MEDIUMOFFICE WHOLEBUILDING INFILTRATION,MEDIUM OFFICE_INFIL_QUARTER_ON,THERMAL ZONE 9,85.86,4.6,3.823E-002,4.453E-004,3.023E-004,0.401,1.000,0.000,0.000,0.000
! <AirFlow Model>, Simple
 AirFlow Model, Simple
! <RoomAir Model>, Zone Name, Mixing/Mundt/UCSDDV/UCSDCV/UCSDUFI/UCSDUFE/User Defined
RoomAir Model,THERMAL ZONE 10,Mixing/Well-Stirred
RoomAir Model,THERMAL ZONE 21,Mixing/Well-Stirred
RoomAir Model,THERMAL ZONE 23,Mixing/Well-Stirred
RoomAir Model,THERMAL ZONE 3,Mixing/Well-Stirred
RoomAir Model,THERMAL ZONE 20,Mixing/Well-Stirred
RoomAir Model,THERMAL ZONE 14,Mixing/Well-Stirred
RoomAir Model,THERMAL ZONE 7,Mixing/Well-Stirred
RoomAir Model,THERMAL ZONE 19,Mixing/Well-Stirred
RoomAir Model,THERMAL ZONE 6,Mixing/Well-Stirred
RoomAir Model,THERMAL ZONE 9,Mixing/Well-Stirred
RoomAir Model,THERMAL ZONE 2,Mixing/Well-Stirred
RoomAir Model,THERMAL ZONE 18,Mixing/Well-Stirred
RoomAir Model,THERMAL ZONE 16,Mixing/Well-Stirred
RoomAir Model,THERMAL ZONE 24,Mixing/Well-Stirred
RoomAir Model,THERMAL ZONE 17,Mixing/Well-Stirred
RoomAir Model,THERMAL ZONE 5,Mixing/Well-Stirred
RoomAir Model,THERMAL ZONE 22,Mixing/Well-Stirred
RoomAir Model,THERMAL ZONE 12,Mixing/Well-Stirred
RoomAir Model,THERMAL ZONE 8,Mixing/Well-Stirred
RoomAir Model,THERMAL ZONE 11,Mixing/Well-Stirred
RoomAir Model,THERMAL ZONE 25,Mixing/Well-Stirred
RoomAir Model,THERMAL ZONE 13,Mixing/Well-Stirred
RoomAir Model,THERMAL ZONE 4,Mixing/Well-Stirred
RoomAir Model,THERMAL ZONE 1,Mixing/Well-Stirred
RoomAir Model,THERMAL ZONE 15,Mixing/Well-Stirred
! <AirflowNetwork Model:Control>, No Multizone or Distribution/Multizone with Distribution/Multizone without Distribution/Multizone with Distribution only during Fan Operation
AirflowNetwork Model:Control,NoMultizoneOrDistribution
! <Zone Volume Capacitance Multiplier>, Sensible Heat Capacity Multiplier, Moisture Capacity Multiplier, Carbon Dioxide Capacity Multiplier, Generic Contaminant Capacity Multiplier
Zone Volume Capacitance Multiplier,   1.000 ,   1.000,   1.000,   1.000
! <Load Timesteps in Zone Design Calculation Averaging Window>, Value
 Load Timesteps in Zone Design Calculation Averaging Window,    4
! <Heating Sizing Factor Information>, Sizing Factor ID, Value
 Heating Sizing Factor Information, Global,   1.2500    
 Heating Sizing Factor Information, Zone THERMAL ZONE 10,   1.2500    
 Heating Sizing Factor Information, Zone THERMAL ZONE 21,   1.2500    
 Heating Sizing Factor Information, Zone THERMAL ZONE 23,   1.2500    
 Heating Sizing Factor Information, Zone THERMAL ZONE 3,   1.2500    
 Heating Sizing Factor Information, Zone THERMAL ZONE 20,   1.2500    
 Heating Sizing Factor Information, Zone THERMAL ZONE 14,   1.2500    
 Heating Sizing Factor Information, Zone THERMAL ZONE 7,   1.2500    
 Heating Sizing Factor Information, Zone THERMAL ZONE 19,   1.2500    
 Heating Sizing Factor Information, Zone THERMAL ZONE 6,   1.2500    
 Heating Sizing Factor Information, Zone THERMAL ZONE 9,   1.2500    
 Heating Sizing Factor Information, Zone THERMAL ZONE 2,   1.2500    
 Heating Sizing Factor Information, Zone THERMAL ZONE 18,   1.2500    
 Heating Sizing Factor Information, Zone THERMAL ZONE 16,   1.2500    
 Heating Sizing Factor Information, Zone THERMAL ZONE 24,   1.2500    
 Heating Sizing Factor Information, Zone THERMAL ZONE 17,   1.2500    
 Heating Sizing Factor Information, Zone THERMAL ZONE 5,   1.2500    
 Heating Sizing Factor Information, Zone THERMAL ZONE 22,   1.2500    
 Heating Sizing Factor Information, Zone THERMAL ZONE 12,   1.2500    
 Heating Sizing Factor Information, Zone THERMAL ZONE 8,   1.2500    
 Heating Sizing Factor Information, Zone THERMAL ZONE 11,   1.2500    
 Heating Sizing Factor Information, Zone THERMAL ZONE 25,   1.2500    
 Heating Sizing Factor Information, Zone THERMAL ZONE 13,   1.2500    
 Heating Sizing Factor Information, Zone THERMAL ZONE 4,   1.2500    
 Heating Sizing Factor Information, Zone THERMAL ZONE 1,   1.2500    
 Heating Sizing Factor Information, Zone THERMAL ZONE 15,   1.2500    
! <Cooling Sizing Factor Information>, Sizing Factor ID, Value
 Cooling Sizing Factor Information, Global,   1.1500    
 Cooling Sizing Factor Information, Zone THERMAL ZONE 10,   1.1500    
 Cooling Sizing Factor Information, Zone THERMAL ZONE 21,   1.1500    
 Cooling Sizing Factor Information, Zone THERMAL ZONE 23,   1.1500    
 Cooling Sizing Factor Information, Zone THERMAL ZONE 3,   1.1500    
 Cooling Sizing Factor Information, Zone THERMAL ZONE 20,   1.1500    
 Cooling Sizing Factor Information, Zone THERMAL ZONE 14,   1.1500    
 Cooling Sizing Factor Information, Zone THERMAL ZONE 7,   1.1500    
 Cooling Sizing Factor Information, Zone THERMAL ZONE 19,   1.1500    
 Cooling Sizing Factor Information, Zone THERMAL ZONE 6,   1.1500    
 Cooling Sizing Factor Information, Zone THERMAL ZONE 9,   1.1500    
 Cooling Sizing Factor Information, Zone THERMAL ZONE 2,   1.1500    
 Cooling Sizing Factor Information, Zone THERMAL ZONE 18,   1.1500    
 Cooling Sizing Factor Information, Zone THERMAL ZONE 16,   1.1500    
 Cooling Sizing Factor Information, Zone THERMAL ZONE 24,   1.1500    
 Cooling Sizing Factor Information, Zone THERMAL ZONE 17,   1.1500    
 Cooling Sizing Factor Information, Zone THERMAL ZONE 5,   1.1500    
 Cooling Sizing Factor Information, Zone THERMAL ZONE 22,   1.1500    
 Cooling Sizing Factor Information, Zone THERMAL ZONE 12,   1.1500    
 Cooling Sizing Factor Information, Zone THERMAL ZONE 8,   1.1500    
 Cooling Sizing Factor Information, Zone THERMAL ZONE 11,   1.1500    
 Cooling Sizing Factor Information, Zone THERMAL ZONE 25,   1.1500    
 Cooling Sizing Factor Information, Zone THERMAL ZONE 13,   1.1500    
 Cooling Sizing Factor Information, Zone THERMAL ZONE 4,   1.1500    
 Cooling Sizing Factor Information, Zone THERMAL ZONE 1,   1.1500    
 Cooling Sizing Factor Information, Zone THERMAL ZONE 15,   1.1500    
! <Zone Sizing Information>, Zone Name, Load Type, Calc Des Load {W}, User Des Load {W}, Calc Des Air Flow Rate {m3/s}, User Des Air Flow Rate {m3/s}, Design Day Name, Date/Time of Peak, Temperature at Peak {C}, Humidity Ratio at Peak {kgWater/kgDryAir}, Floor Area {m2}, # Occupants, Calc Outdoor Air Flow Rate {m3/s}
 Zone Sizing Information, THERMAL ZONE 10, Cooling, 9884.85374, 11367.58180, 0.59800, 0.68770, PHOENIX SKY HARBOR INTL AP ANN CLG .4% CONDNS DB=>MWB, 7/21 17:30:00, 41.12000, 7.19791E-003, 85.85884, 4.62088, 4.36163E-002
 Zone Sizing Information, THERMAL ZONE 10, Heating, 3203.53971, 4004.42464, 0.16969, 0.21211, PHOENIX SKY HARBOR INTL AP ANN HTG 99.6% CONDNS DB, 12/21 06:00:00, 3.70000, 5.13120E-003, 85.85884, 4.62088, 4.36163E-002
 Zone Sizing Information, THERMAL ZONE 21, Cooling, 9192.95201, 10571.89481, 0.55614, 0.63956, PHOENIX SKY HARBOR INTL AP ANN CLG .4% CONDNS DB=>MWB, 7/21 11:15:00, 40.94000, 7.19791E-003, 85.85884, 4.62088, 4.36163E-002
 Zone Sizing Information, THERMAL ZONE 21, Heating, 4263.94030, 5329.92537, 0.22584, 0.28231, PHOENIX SKY HARBOR INTL AP ANN HTG 99.6% CONDNS DB, 12/21 06:00:00, 3.70000, 5.13120E-003, 85.85884, 4.62088, 4.36163E-002
 Zone Sizing Information, THERMAL ZONE 23, Cooling, 5069.45369, 5829.87175, 0.30669, 0.35269, PHOENIX SKY HARBOR INTL AP ANN CLG .4% CONDNS DB=>MWB, 7/21 14:00:00, 43.40000, 7.19791E-003, 85.85884, 4.62088, 4.36163E-002
 Zone Sizing Information, THERMAL ZONE 23, Heating, 3811.63273, 4764.54091, 0.20190, 0.25238, PHOENIX SKY HARBOR INTL AP ANN HTG 99.6% CONDNS DB, 12/21 06:00:00, 3.70000, 5.13120E-003, 85.85884, 4.62088, 4.36163E-002
 Zone Sizing Information, THERMAL ZONE 3, Cooling, 5799.55477, 6669.48799, 0.35085, 0.40348, PHOENIX SKY HARBOR INTL AP ANN CLG .4% CONDNS DB=>MWB, 7/21 18:15:00, 40.07000, 7.19791E-003, 85.85884, 4.62088, 4.36163E-002
 Zone Sizing Information, THERMAL ZONE 3, Heating, 4263.93927, 5329.92409, 0.22584, 0.28231, PHOENIX SKY HARBOR INTL AP ANN HTG 99.6% CONDNS DB, 12/21 06:00:00, 3.70000, 5.13120E-003, 85.85884, 4.62088, 4.36163E-002
 Zone Sizing Information, THERMAL ZONE 20, Cooling, 8794.60793, 10113.79912, 0.53204, 0.61185, PHOENIX SKY HARBOR INTL AP ANN CLG .4% CONDNS DB=>MWB, 7/21 11:15:00, 40.94000, 7.19791E-003, 85.85884, 4.62088, 4.36163E-002
 Zone Sizing Information, THERMAL ZONE 20, Heating, 3238.93686, 4048.67107, 0.17157, 0.21446, PHOENIX SKY HARBOR INTL AP ANN HTG 99.6% CONDNS DB, 12/21 06:00:00, 3.70000, 5.13120E-003, 85.85884, 4.62088, 4.36163E-002
 Zone Sizing Information, THERMAL ZONE 14, Cooling, 9004.86431, 10355.59395, 0.54476, 0.62648, PHOENIX SKY HARBOR INTL AP ANN CLG .4% CONDNS DB=>MWB, 7/21 11:15:00, 40.94000, 7.19791E-003, 85.85884, 4.62088, 4.36163E-002
 Zone Sizing Information, THERMAL ZONE 14, Heating, 3201.45670, 4001.82088, 0.16958, 0.21198, PHOENIX SKY HARBOR INTL AP ANN HTG 99.6% CONDNS DB, 12/21 06:00:00, 3.70000, 5.13120E-003, 85.85884, 4.62088, 4.36163E-002
 Zone Sizing Information, THERMAL ZONE 7, Cooling, 7621.13993, 8764.31092, 0.46105, 0.53021, PHOENIX SKY HARBOR INTL AP ANN CLG .4% CONDNS DB=>MWB, 7/21 14:30:00, 43.40000, 7.19791E-003, 85.85884, 4.62088, 4.36163E-002
 Zone Sizing Information, THERMAL ZONE 7, Heating, 4263.93927, 5329.92409, 0.22584, 0.28231, PHOENIX SKY HARBOR INTL AP ANN HTG 99.6% CONDNS DB, 12/21 06:00:00, 3.70000, 5.13120E-003, 85.85884, 4.62088, 4.36163E-002
 Zone Sizing Information, THERMAL ZONE 19, Cooling, 20278.73149, 23320.54121, 1.22689, 1.41092, PHOENIX SKY HARBOR INTL AP ANN CLG .4% CONDNS DB=>MWB, 7/21 18:45:00, 39.17000, 7.19791E-003, 656.36463, 35.32525, 0.33343
 Zone Sizing Information, THERMAL ZONE 19, Heating, 8822.45103, 11028.06379, 0.46734, 0.58417, PHOENIX SKY HARBOR INTL AP ANN HTG 99.6% CONDNS DB, 12/21 06:00:00, 3.70000, 5.13120E-003, 656.36463, 35.32525, 0.33343
 Zone Sizing Information, THERMAL ZONE 6, Cooling, 6761.18184, 7775.35911, 0.40903, 0.47039, PHOENIX SKY HARBOR INTL AP ANN CLG .4% CONDNS DB=>MWB, 7/21 10:45:00, 40.19000, 7.19791E-003, 85.85884, 4.62088, 4.36163E-002
 Zone Sizing Information, THERMAL ZONE 6, Heating, 3811.56761, 4764.45951, 0.20190, 0.25237, PHOENIX SKY HARBOR INTL AP ANN HTG 99.6% CONDNS DB, 12/21 06:00:00, 3.70000, 5.13120E-003, 85.85884, 4.62088, 4.36163E-002
 Zone Sizing Information, THERMAL ZONE 9, Cooling, 5430.89056, 6245.52414, 0.32855, 0.37784, PHOENIX SKY HARBOR INTL AP ANN CLG .4% CONDNS DB=>MWB, 7/21 18:15:00, 40.07000, 7.19791E-003, 85.85884, 4.62088, 4.36163E-002
 Zone Sizing Information, THERMAL ZONE 9, Heating, 3234.17761, 4042.72201, 0.17131, 0.21414, PHOENIX SKY HARBOR INTL AP ANN HTG 99.6% CONDNS DB, 12/21 06:00:00, 3.70000, 5.13120E-003, 85.85884, 4.62088, 4.36163E-002
 Zone Sizing Information, THERMAL ZONE 2, Cooling, 17623.91640, 20267.50386, 1.06630, 1.22625, PHOENIX SKY HARBOR INTL AP ANN CLG .4% CONDNS DB=>MWB, 7/21 18:00:00, 40.52000, 7.19791E-003, 656.36463, 35.32525, 0.33343
 Zone Sizing Information, THERMAL ZONE 2, Heating, 1324.42541, 1655.53177, 7.01634E-002, 0.33343, PHOENIX SKY HARBOR INTL AP ANN HTG 99.6% CONDNS DB, 12/21 07:15:00, 3.70000, 5.13120E-003, 656.36463, 35.32525, 0.33343
 Zone Sizing Information, THERMAL ZONE 18, Cooling, 9046.40110, 10403.36127, 0.54728, 0.62937, PHOENIX SKY HARBOR INTL AP ANN CLG .4% CONDNS DB=>MWB, 7/21 11:15:00, 40.94000, 7.19791E-003, 85.85884, 4.62088, 4.36163E-002
 Zone Sizing Information, THERMAL ZONE 18, Heating, 3234.16587, 4042.70734, 0.17131, 0.21414, PHOENIX SKY HARBOR INTL AP ANN HTG 99.6% CONDNS DB, 12/21 06:00:00, 3.70000, 5.13120E-003, 85.85884, 4.62088, 4.36163E-002
 Zone Sizing Information, THERMAL ZONE 16, Cooling, 5389.65147, 6198.09919, 0.32606, 0.37497, PHOENIX SKY HARBOR INTL AP ANN CLG .4% CONDNS DB=>MWB, 7/21 18:15:00, 40.07000, 7.19791E-003, 85.85884, 4.62088, 4.36163E-002
 Zone Sizing Information, THERMAL ZONE 16, Heating, 3201.48577, 4001.85721, 0.16958, 0.21198, PHOENIX SKY HARBOR INTL AP ANN HTG 99.6% CONDNS DB, 12/21 06:00:00, 3.70000, 5.13120E-003, 85.85884, 4.62088, 4.36163E-002
 Zone Sizing Information, THERMAL ZONE 24, Cooling, 16345.72535, 18797.58415, 0.98899, 1.13734, PHOENIX SKY HARBOR INTL AP ANN CLG .4% CONDNS DB=>MWB, 7/21 17:45:00, 40.82000, 7.19791E-003, 656.36463, 35.32525, 0.33343
 Zone Sizing Information, THERMAL ZONE 24, Heating, 1801.09401, 2251.36751, 9.54157E-002, 0.33343, PHOENIX SKY HARBOR INTL AP ANN HTG 99.6% CONDNS DB, 12/21 07:00:00, 3.70000, 5.13120E-003, 656.36463, 35.32525, 0.33343
 Zone Sizing Information, THERMAL ZONE 17, Cooling, 7586.56729, 8724.55238, 0.45897, 0.52781, PHOENIX SKY HARBOR INTL AP ANN CLG .4% CONDNS DB=>MWB, 7/21 16:45:00, 41.96000, 7.19791E-003, 85.85884, 4.62088, 4.36163E-002
 Zone Sizing Information, THERMAL ZONE 17, Heating, 3817.12958, 4771.41197, 0.20219, 0.25274, PHOENIX SKY HARBOR INTL AP ANN HTG 99.6% CONDNS DB, 12/21 06:00:00, 3.70000, 5.13120E-003, 85.85884, 4.62088, 4.36163E-002
 Zone Sizing Information, THERMAL ZONE 5, Cooling, 7371.28191, 8476.97420, 0.44594, 0.51283, PHOENIX SKY HARBOR INTL AP ANN CLG .4% CONDNS DB=>MWB, 7/21 14:30:00, 43.40000, 7.19791E-003, 85.85884, 4.62088, 4.36163E-002
 Zone Sizing Information, THERMAL ZONE 5, Heating, 3234.17761, 4042.72201, 0.17131, 0.21414, PHOENIX SKY HARBOR INTL AP ANN HTG 99.6% CONDNS DB, 12/21 06:00:00, 3.70000, 5.13120E-003, 85.85884, 4.62088, 4.36163E-002
 Zone Sizing Information, THERMAL ZONE 22, Cooling, 10227.43260, 11761.54749, 0.61872, 0.71152, PHOENIX SKY HARBOR INTL AP ANN CLG .4% CONDNS DB=>MWB, 7/21 17:30:00, 41.12000, 7.19791E-003, 85.85884, 4.62088, 4.36163E-002
 Zone Sizing Information, THERMAL ZONE 22, Heating, 4263.80738, 5329.75922, 0.22584, 0.28230, PHOENIX SKY HARBOR INTL AP ANN HTG 99.6% CONDNS DB, 12/21 06:00:00, 3.70000, 5.13120E-003, 85.85884, 4.62088, 4.36163E-002
 Zone Sizing Information, THERMAL ZONE 12, Cooling, 9920.54831, 11408.63056, 0.60016, 0.69018, PHOENIX SKY HARBOR INTL AP ANN CLG .4% CONDNS DB=>MWB, 7/21 17:30:00, 41.12000, 7.19791E-003, 85.85884, 4.62088, 4.36163E-002
 Zone Sizing Information, THERMAL ZONE 12, Heating, 3234.99479, 4043.74349, 0.17136, 0.21420, PHOENIX SKY HARBOR INTL AP ANN HTG 99.6% CONDNS DB, 12/21 06:00:00, 3.70000, 5.13120E-003, 85.85884, 4.62088, 4.36163E-002
 Zone Sizing Information, THERMAL ZONE 8, Cooling, 3247.65571, 3734.80407, 0.19648, 0.22595, PHOENIX SKY HARBOR INTL AP ANN CLG .4% CONDNS DB=>MWB, 7/21 18:00:00, 40.52000, 7.19791E-003, 85.85884, 4.62088, 4.36163E-002
 Zone Sizing Information, THERMAL ZONE 8, Heating, 3811.63273, 4764.54091, 0.20190, 0.25238, PHOENIX SKY HARBOR INTL AP ANN HTG 99.6% CONDNS DB, 12/21 06:00:00, 3.70000, 5.13120E-003, 85.85884, 4.62088, 4.36163E-002
 Zone Sizing Information, THERMAL ZONE 11, Cooling, 7327.13045, 8426.20002, 0.44327, 0.50976, PHOENIX SKY HARBOR INTL AP ANN CLG .4% CONDNS DB=>MWB, 7/21 14:30:00, 43.40000, 7.19791E-003, 85.85884, 4.62088, 4.36163E-002
 Zone Sizing Information, THERMAL ZONE 11, Heating, 3201.48577, 4001.85721, 0.16958, 0.21198, PHOENIX SKY HARBOR INTL AP ANN HTG 99.6% CONDNS DB, 12/21 06:00:00, 3.70000, 5.13120E-003, 85.85884, 4.62088, 4.36163E-002
 Zone Sizing Information, THERMAL ZONE 25, Cooling, 7117.27081, 8184.86143, 0.43057, 0.49516, PHOENIX SKY HARBOR INTL AP ANN CLG .4% CONDNS DB=>MWB, 7/21 14:30:00, 43.40000, 7.19791E-003, 85.85884, 4.62088, 4.36163E-002
 Zone Sizing Information, THERMAL ZONE 25, Heating, 3238.98757, 4048.73446, 0.17157, 0.21446, PHOENIX SKY HARBOR INTL AP ANN HTG 99.6% CONDNS DB, 12/21 06:00:00, 3.70000, 5.13120E-003, 85.85884, 4.62088, 4.36163E-002
 Zone Sizing Information, THERMAL ZONE 13, Cooling, 8708.07913, 10014.29100, 0.52686, 0.60589, PHOENIX SKY HARBOR INTL AP ANN CLG .4% CONDNS DB=>MWB, 7/21 16:45:00, 41.96000, 7.19791E-003, 656.36463, 35.32525, 0.33343
 Zone Sizing Information, THERMAL ZONE 13, Heating, 6062.75355, 7578.44194, 0.32118, 0.40148, PHOENIX SKY HARBOR INTL AP ANN HTG 99.6% CONDNS DB, 12/21 06:45:00, 3.70000, 5.13120E-003, 656.36463, 35.32525, 0.33343
 Zone Sizing Information, THERMAL ZONE 4, Cooling, 18036.03241, 20741.43727, 1.09123, 1.25492, PHOENIX SKY HARBOR INTL AP ANN CLG .4% CONDNS DB=>MWB, 7/21 18:00:00, 40.52000, 7.19791E-003, 656.36463, 35.32525, 0.33343
 Zone Sizing Information, THERMAL ZONE 4, Heating, 1555.69353, 1944.61692, 8.24152E-002, 0.33343, PHOENIX SKY HARBOR INTL AP ANN HTG 99.6% CONDNS DB, 12/21 07:15:00, 3.70000, 5.13120E-003, 656.36463, 35.32525, 0.33343
 Zone Sizing Information, THERMAL ZONE 1, Cooling, 9691.99775, 11145.79741, 0.58633, 0.67428, PHOENIX SKY HARBOR INTL AP ANN CLG .4% CONDNS DB=>MWB, 7/21 17:30:00, 41.12000, 7.19791E-003, 85.85884, 4.62088, 4.36163E-002
 Zone Sizing Information, THERMAL ZONE 1, Heating, 3242.66239, 4053.32799, 0.17176, 0.21470, PHOENIX SKY HARBOR INTL AP ANN HTG 99.6% CONDNS DB, 12/21 06:00:00, 3.70000, 5.13120E-003, 85.85884, 4.62088, 4.36163E-002
 Zone Sizing Information, THERMAL ZONE 15, Cooling, 5188.47814, 5966.74986, 0.31389, 0.36097, PHOENIX SKY HARBOR INTL AP ANN CLG .4% CONDNS DB=>MWB, 7/21 18:15:00, 40.07000, 7.19791E-003, 85.85884, 4.62088, 4.36163E-002
 Zone Sizing Information, THERMAL ZONE 15, Heating, 3238.98757, 4048.73446, 0.17157, 0.21446, PHOENIX SKY HARBOR INTL AP ANN HTG 99.6% CONDNS DB, 12/21 06:00:00, 3.70000, 5.13120E-003, 85.85884, 4.62088, 4.36163E-002
! <System Sizing Information>, System Name, Field Description, Value
 System Sizing Information, AIR LOOP HVAC 1, Calculated Cooling Design Air Flow Rate [m3/s], 16.04831
 System Sizing Information, AIR LOOP HVAC 1, User Cooling Design Air Flow Rate [m3/s], 16.04831
 System Sizing Information, AIR LOOP HVAC 1, Calculated Heating Design Air Flow Rate [m3/s], 6.68778
 System Sizing Information, AIR LOOP HVAC 1, User Heating Design Air Flow Rate [m3/s], 6.68778
! <Component Sizing Information>, Component Type, Component Name, Input Field Description, Value
 Component Sizing Information, AirTerminal:SingleDuct:VAV:Reheat, AIR TERMINAL SINGLE DUCT VAV REHEAT 7, Maximum Air Flow Rate [m3/s], 0.68770
 Component Sizing Information, AirTerminal:SingleDuct:VAV:Reheat, AIR TERMINAL SINGLE DUCT VAV REHEAT 7, Maximum Flow per Zone Floor Area during Reheat [m3/s-m2], 2.40290E-003
 Component Sizing Information, AirTerminal:SingleDuct:VAV:Reheat, AIR TERMINAL SINGLE DUCT VAV REHEAT 7, Maximum Flow Fraction during Reheat [], 0.30000
 Component Sizing Information, AirTerminal:SingleDuct:VAV:Reheat, AIR TERMINAL SINGLE DUCT VAV REHEAT 7, Maximum Reheat Water Flow Rate [m3/s], 1.50385E-004
 Component Sizing Information, AirTerminal:SingleDuct:VAV:Reheat, AIR TERMINAL SINGLE DUCT VAV REHEAT 7, Reheat Coil Sizing Air Volume Flow Rate [m3/s], 0.21211
 Component Sizing Information, Coil:Heating:Water, COIL HEATING WATER 8, Maximum Water Flow Rate [m3/s], 1.50385E-004
 Component Sizing Information, Coil:Heating:Water, COIL HEATING WATER 8, Design Coil Load [W], 6922.25934
 Component Sizing Information, Coil:Heating:Water, COIL HEATING WATER 8, U-Factor Times Area Value [W/K], 470.03131
! <Water Heating Coil Capacity Information>,Component Type,Name,Nominal Total Capacity {W}
Water Heating Coil Capacity Information,Coil:Heating:Water,COIL HEATING WATER 8,12275.00
 Component Sizing Information, AirTerminal:SingleDuct:VAV:Reheat, AIR TERMINAL SINGLE DUCT VAV REHEAT 3, Maximum Air Flow Rate [m3/s], 0.63956
 Component Sizing Information, AirTerminal:SingleDuct:VAV:Reheat, AIR TERMINAL SINGLE DUCT VAV REHEAT 3, Maximum Flow per Zone Floor Area during Reheat [m3/s-m2], 2.23468E-003
 Component Sizing Information, AirTerminal:SingleDuct:VAV:Reheat, AIR TERMINAL SINGLE DUCT VAV REHEAT 3, Maximum Flow Fraction during Reheat [], 0.30000
 Component Sizing Information, AirTerminal:SingleDuct:VAV:Reheat, AIR TERMINAL SINGLE DUCT VAV REHEAT 3, Maximum Reheat Water Flow Rate [m3/s], 2.00150E-004
 Component Sizing Information, AirTerminal:SingleDuct:VAV:Reheat, AIR TERMINAL SINGLE DUCT VAV REHEAT 3, Reheat Coil Sizing Air Volume Flow Rate [m3/s], 0.28231
 Component Sizing Information, Coil:Heating:Water, COIL HEATING WATER 4, Maximum Water Flow Rate [m3/s], 2.00150E-004
 Component Sizing Information, Coil:Heating:Water, COIL HEATING WATER 4, Design Coil Load [W], 9212.96890
 Component Sizing Information, Coil:Heating:Water, COIL HEATING WATER 4, U-Factor Times Area Value [W/K], 437.12695
Water Heating Coil Capacity Information,Coil:Heating:Water,COIL HEATING WATER 4,14088.69
 Component Sizing Information, AirTerminal:SingleDuct:VAV:Reheat, AIR TERMINAL SINGLE DUCT VAV REHEAT 20, Maximum Air Flow Rate [m3/s], 0.35269
 Component Sizing Information, AirTerminal:SingleDuct:VAV:Reheat, AIR TERMINAL SINGLE DUCT VAV REHEAT 20, Maximum Flow per Zone Floor Area during Reheat [m3/s-m2], 2.03200E-003
 Component Sizing Information, AirTerminal:SingleDuct:VAV:Reheat, AIR TERMINAL SINGLE DUCT VAV REHEAT 20, Maximum Flow Fraction during Reheat [], 0.49467
 Component Sizing Information, AirTerminal:SingleDuct:VAV:Reheat, AIR TERMINAL SINGLE DUCT VAV REHEAT 20, Maximum Reheat Water Flow Rate [m3/s], 1.78931E-004
 Component Sizing Information, AirTerminal:SingleDuct:VAV:Reheat, AIR TERMINAL SINGLE DUCT VAV REHEAT 20, Reheat Coil Sizing Air Volume Flow Rate [m3/s], 0.25238
 Component Sizing Information, Coil:Heating:Water, COIL HEATING WATER 21, Maximum Water Flow Rate [m3/s], 1.78931E-004
 Component Sizing Information, Coil:Heating:Water, COIL HEATING WATER 21, Design Coil Load [W], 8236.23923
 Component Sizing Information, Coil:Heating:Water, COIL HEATING WATER 21, U-Factor Times Area Value [W/K], 241.05996
Water Heating Coil Capacity Information,Coil:Heating:Water,COIL HEATING WATER 21,9702.77
 Component Sizing Information, AirTerminal:SingleDuct:VAV:Reheat, AIR TERMINAL SINGLE DUCT VAV REHEAT 26, Maximum Air Flow Rate [m3/s], 0.40348
 Component Sizing Information, AirTerminal:SingleDuct:VAV:Reheat, AIR TERMINAL SINGLE DUCT VAV REHEAT 26, Maximum Flow per Zone Floor Area during Reheat [m3/s-m2], 2.03200E-003
 Component Sizing Information, AirTerminal:SingleDuct:VAV:Reheat, AIR TERMINAL SINGLE DUCT VAV REHEAT 26, Maximum Flow Fraction during Reheat [], 0.43240
 Component Sizing Information, AirTerminal:SingleDuct:VAV:Reheat, AIR TERMINAL SINGLE DUCT VAV REHEAT 26, Maximum Reheat Water Flow Rate [m3/s], 2.00150E-004
 Component Sizing Information, AirTerminal:SingleDuct:VAV:Reheat, AIR TERMINAL SINGLE DUCT VAV REHEAT 26, Reheat Coil Sizing Air Volume Flow Rate [m3/s], 0.28231
 Component Sizing Information, Coil:Heating:Water, COIL HEATING WATER 27, Maximum Water Flow Rate [m3/s], 2.00150E-004
 Component Sizing Information, Coil:Heating:Water, COIL HEATING WATER 27, Design Coil Load [W], 9212.96669
 Component Sizing Information, Coil:Heating:Water, COIL HEATING WATER 27, U-Factor Times Area Value [W/K], 275.77233
Water Heating Coil Capacity Information,Coil:Heating:Water,COIL HEATING WATER 27,11002.02
 Component Sizing Information, AirTerminal:SingleDuct:VAV:Reheat, AIR TERMINAL SINGLE DUCT VAV REHEAT 21, Maximum Air Flow Rate [m3/s], 0.61185
 Component Sizing Information, AirTerminal:SingleDuct:VAV:Reheat, AIR TERMINAL SINGLE DUCT VAV REHEAT 21, Maximum Flow per Zone Floor Area during Reheat [m3/s-m2], 2.13788E-003
 Component Sizing Information, AirTerminal:SingleDuct:VAV:Reheat, AIR TERMINAL SINGLE DUCT VAV REHEAT 21, Maximum Flow Fraction during Reheat [], 0.30000
 Component Sizing Information, AirTerminal:SingleDuct:VAV:Reheat, AIR TERMINAL SINGLE DUCT VAV REHEAT 21, Maximum Reheat Water Flow Rate [m3/s], 1.52046E-004
 Component Sizing Information, AirTerminal:SingleDuct:VAV:Reheat, AIR TERMINAL SINGLE DUCT VAV REHEAT 21, Reheat Coil Sizing Air Volume Flow Rate [m3/s], 0.21446
 Component Sizing Information, Coil:Heating:Water, COIL HEATING WATER 22, Maximum Water Flow Rate [m3/s], 1.52046E-004
 Component Sizing Information, Coil:Heating:Water, COIL HEATING WATER 22, Design Coil Load [W], 6998.74656
 Component Sizing Information, Coil:Heating:Water, COIL HEATING WATER 22, U-Factor Times Area Value [W/K], 418.19069
Water Heating Coil Capacity Information,Coil:Heating:Water,COIL HEATING WATER 22,11826.09
 Component Sizing Information, AirTerminal:SingleDuct:VAV:Reheat, AIR TERMINAL SINGLE DUCT VAV REHEAT 11, Maximum Air Flow Rate [m3/s], 0.62648
 Component Sizing Information, AirTerminal:SingleDuct:VAV:Reheat, AIR TERMINAL SINGLE DUCT VAV REHEAT 11, Maximum Flow per Zone Floor Area during Reheat [m3/s-m2], 2.18898E-003
 Component Sizing Information, AirTerminal:SingleDuct:VAV:Reheat, AIR TERMINAL SINGLE DUCT VAV REHEAT 11, Maximum Flow Fraction during Reheat [], 0.30000
 Component Sizing Information, AirTerminal:SingleDuct:VAV:Reheat, AIR TERMINAL SINGLE DUCT VAV REHEAT 11, Maximum Reheat Water Flow Rate [m3/s], 1.50287E-004
 Component Sizing Information, AirTerminal:SingleDuct:VAV:Reheat, AIR TERMINAL SINGLE DUCT VAV REHEAT 11, Reheat Coil Sizing Air Volume Flow Rate [m3/s], 0.21198
 Component Sizing Information, Coil:Heating:Water, COIL HEATING WATER 12, Maximum Water Flow Rate [m3/s], 1.50287E-004
 Component Sizing Information, Coil:Heating:Water, COIL HEATING WATER 12, Design Coil Load [W], 6917.75838
 Component Sizing Information, Coil:Heating:Water, COIL HEATING WATER 12, U-Factor Times Area Value [W/K], 428.18823
Water Heating Coil Capacity Information,Coil:Heating:Water,COIL HEATING WATER 12,11851.81
 Component Sizing Information, AirTerminal:SingleDuct:VAV:Reheat, AIR TERMINAL SINGLE DUCT VAV REHEAT 16, Maximum Air Flow Rate [m3/s], 0.53021
 Component Sizing Information, AirTerminal:SingleDuct:VAV:Reheat, AIR TERMINAL SINGLE DUCT VAV REHEAT 16, Maximum Flow per Zone Floor Area during Reheat [m3/s-m2], 2.03200E-003
 Component Sizing Information, AirTerminal:SingleDuct:VAV:Reheat, AIR TERMINAL SINGLE DUCT VAV REHEAT 16, Maximum Flow Fraction during Reheat [], 0.32905
 Component Sizing Information, AirTerminal:SingleDuct:VAV:Reheat, AIR TERMINAL SINGLE DUCT VAV REHEAT 16, Maximum Reheat Water Flow Rate [m3/s], 2.00150E-004
 Component Sizing Information, AirTerminal:SingleDuct:VAV:Reheat, AIR TERMINAL SINGLE DUCT VAV REHEAT 16, Reheat Coil Sizing Air Volume Flow Rate [m3/s], 0.28231
 Component Sizing Information, Coil:Heating:Water, COIL HEATING WATER 17, Maximum Water Flow Rate [m3/s], 2.00150E-004
 Component Sizing Information, Coil:Heating:Water, COIL HEATING WATER 17, Design Coil Load [W], 9212.96669
 Component Sizing Information, Coil:Heating:Water, COIL HEATING WATER 17, U-Factor Times Area Value [W/K], 362.38815
Water Heating Coil Capacity Information,Coil:Heating:Water,COIL HEATING WATER 17,12835.37
 Component Sizing Information, AirTerminal:SingleDuct:VAV:Reheat, AIR TERMINAL SINGLE DUCT VAV REHEAT 22, Maximum Air Flow Rate [m3/s], 1.41092
 Component Sizing Information, AirTerminal:SingleDuct:VAV:Reheat, AIR TERMINAL SINGLE DUCT VAV REHEAT 22, Maximum Flow per Zone Floor Area during Reheat [m3/s-m2], 2.03200E-003
 Component Sizing Information, AirTerminal:SingleDuct:VAV:Reheat, AIR TERMINAL SINGLE DUCT VAV REHEAT 22, Maximum Flow Fraction during Reheat [], 0.94529
 Component Sizing Information, AirTerminal:SingleDuct:VAV:Reheat, AIR TERMINAL SINGLE DUCT VAV REHEAT 22, Maximum Reheat Water Flow Rate [m3/s], 4.14166E-004
 Component Sizing Information, AirTerminal:SingleDuct:VAV:Reheat, AIR TERMINAL SINGLE DUCT VAV REHEAT 22, Reheat Coil Sizing Air Volume Flow Rate [m3/s], 0.58417
 Component Sizing Information, Coil:Heating:Water, COIL HEATING WATER 23, Maximum Water Flow Rate [m3/s], 4.14166E-004
 Component Sizing Information, Coil:Heating:Water, COIL HEATING WATER 23, Design Coil Load [W], 19064.16973
 Component Sizing Information, Coil:Heating:Water, COIL HEATING WATER 23, U-Factor Times Area Value [W/K], 964.33963
Water Heating Coil Capacity Information,Coil:Heating:Water,COIL HEATING WATER 23,30022.05
 Component Sizing Information, AirTerminal:SingleDuct:VAV:Reheat, AIR TERMINAL SINGLE DUCT VAV REHEAT 10, Maximum Air Flow Rate [m3/s], 0.47039
 Component Sizing Information, AirTerminal:SingleDuct:VAV:Reheat, AIR TERMINAL SINGLE DUCT VAV REHEAT 10, Maximum Flow per Zone Floor Area during Reheat [m3/s-m2], 2.03200E-003
 Component Sizing Information, AirTerminal:SingleDuct:VAV:Reheat, AIR TERMINAL SINGLE DUCT VAV REHEAT 10, Maximum Flow Fraction during Reheat [], 0.37090
 Component Sizing Information, AirTerminal:SingleDuct:VAV:Reheat, AIR TERMINAL SINGLE DUCT VAV REHEAT 10, Maximum Reheat Water Flow Rate [m3/s], 1.78928E-004
 Component Sizing Information, AirTerminal:SingleDuct:VAV:Reheat, AIR TERMINAL SINGLE DUCT VAV REHEAT 10, Reheat Coil Sizing Air Volume Flow Rate [m3/s], 0.25237
 Component Sizing Information, Coil:Heating:Water, COIL HEATING WATER 11, Maximum Water Flow Rate [m3/s], 1.78928E-004
 Component Sizing Information, Coil:Heating:Water, COIL HEATING WATER 11, Design Coil Load [W], 8236.09851
 Component Sizing Information, Coil:Heating:Water, COIL HEATING WATER 11, U-Factor Times Area Value [W/K], 321.50164
Water Heating Coil Capacity Information,Coil:Heating:Water,COIL HEATING WATER 11,11428.46
 Component Sizing Information, AirTerminal:SingleDuct:VAV:Reheat, AIR TERMINAL SINGLE DUCT VAV REHEAT 2, Maximum Air Flow Rate [m3/s], 0.37784
 Component Sizing Information, AirTerminal:SingleDuct:VAV:Reheat, AIR TERMINAL SINGLE DUCT VAV REHEAT 2, Maximum Flow per Zone Floor Area during Reheat [m3/s-m2], 2.03200E-003
 Component Sizing Information, AirTerminal:SingleDuct:VAV:Reheat, AIR TERMINAL SINGLE DUCT VAV REHEAT 2, Maximum Flow Fraction during Reheat [], 0.46175
 Component Sizing Information, AirTerminal:SingleDuct:VAV:Reheat, AIR TERMINAL SINGLE DUCT VAV REHEAT 2, Maximum Reheat Water Flow Rate [m3/s], 1.51823E-004
 Component Sizing Information, AirTerminal:SingleDuct:VAV:Reheat, AIR TERMINAL SINGLE DUCT VAV REHEAT 2, Reheat Coil Sizing Air Volume Flow Rate [m3/s], 0.21414
 Component Sizing Information, Coil:Heating:Water, COIL HEATING WATER 3, Maximum Water Flow Rate [m3/s], 1.51823E-004
 Component Sizing Information, Coil:Heating:Water, COIL HEATING WATER 3, Design Coil Load [W], 6988.46213
 Component Sizing Information, Coil:Heating:Water, COIL HEATING WATER 3, U-Factor Times Area Value [W/K], 258.24562
Water Heating Coil Capacity Information,Coil:Heating:Water,COIL HEATING WATER 3,9416.79
 Component Sizing Information, AirTerminal:SingleDuct:VAV:Reheat, AIR TERMINAL SINGLE DUCT VAV REHEAT 24, Maximum Air Flow Rate [m3/s], 1.22625
 Component Sizing Information, AirTerminal:SingleDuct:VAV:Reheat, AIR TERMINAL SINGLE DUCT VAV REHEAT 24, Maximum Flow per Zone Floor Area during Reheat [m3/s-m2], 1.86824E-003
 Component Sizing Information, AirTerminal:SingleDuct:VAV:Reheat, AIR TERMINAL SINGLE DUCT VAV REHEAT 24, Maximum Flow Fraction during Reheat [], 1.00000
 Component Sizing Information, AirTerminal:SingleDuct:VAV:Reheat, AIR TERMINAL SINGLE DUCT VAV REHEAT 24, Maximum Reheat Water Flow Rate [m3/s], 2.60816E-004
 Component Sizing Information, AirTerminal:SingleDuct:VAV:Reheat, AIR TERMINAL SINGLE DUCT VAV REHEAT 24, Reheat Coil Sizing Air Volume Flow Rate [m3/s], 0.36787
 Component Sizing Information, Coil:Heating:Water, COIL HEATING WATER 25, Maximum Water Flow Rate [m3/s], 2.60816E-004
 Component Sizing Information, Coil:Heating:Water, COIL HEATING WATER 25, Design Coil Load [W], 12005.44942
 Component Sizing Information, Coil:Heating:Water, COIL HEATING WATER 25, U-Factor Times Area Value [W/K], 838.11961
Water Heating Coil Capacity Information,Coil:Heating:Water,COIL HEATING WATER 25,21498.60
 Component Sizing Information, AirTerminal:SingleDuct:VAV:Reheat, AIR TERMINAL SINGLE DUCT VAV REHEAT 14, Maximum Air Flow Rate [m3/s], 0.62937
 Component Sizing Information, AirTerminal:SingleDuct:VAV:Reheat, AIR TERMINAL SINGLE DUCT VAV REHEAT 14, Maximum Flow per Zone Floor Area during Reheat [m3/s-m2], 2.19908E-003
 Component Sizing Information, AirTerminal:SingleDuct:VAV:Reheat, AIR TERMINAL SINGLE DUCT VAV REHEAT 14, Maximum Flow Fraction during Reheat [], 0.30000
 Component Sizing Information, AirTerminal:SingleDuct:VAV:Reheat, AIR TERMINAL SINGLE DUCT VAV REHEAT 14, Maximum Reheat Water Flow Rate [m3/s], 1.51823E-004
 Component Sizing Information, AirTerminal:SingleDuct:VAV:Reheat, AIR TERMINAL SINGLE DUCT VAV REHEAT 14, Reheat Coil Sizing Air Volume Flow Rate [m3/s], 0.21414
 Component Sizing Information, Coil:Heating:Water, COIL HEATING WATER 15, Maximum Water Flow Rate [m3/s], 1.51823E-004
 Component Sizing Information, Coil:Heating:Water, COIL HEATING WATER 15, Design Coil Load [W], 6988.43677
 Component Sizing Information, Coil:Heating:Water, COIL HEATING WATER 15, U-Factor Times Area Value [W/K], 430.16328
Water Heating Coil Capacity Information,Coil:Heating:Water,COIL HEATING WATER 15,11947.15
 Component Sizing Information, AirTerminal:SingleDuct:VAV:Reheat, AIR TERMINAL SINGLE DUCT VAV REHEAT 8, Maximum Air Flow Rate [m3/s], 0.37497
 Component Sizing Information, AirTerminal:SingleDuct:VAV:Reheat, AIR TERMINAL SINGLE DUCT VAV REHEAT 8, Maximum Flow per Zone Floor Area during Reheat [m3/s-m2], 2.03200E-003
 Component Sizing Information, AirTerminal:SingleDuct:VAV:Reheat, AIR TERMINAL SINGLE DUCT VAV REHEAT 8, Maximum Flow Fraction during Reheat [], 0.46528
 Component Sizing Information, AirTerminal:SingleDuct:VAV:Reheat, AIR TERMINAL SINGLE DUCT VAV REHEAT 8, Maximum Reheat Water Flow Rate [m3/s], 1.50288E-004
 Component Sizing Information, AirTerminal:SingleDuct:VAV:Reheat, AIR TERMINAL SINGLE DUCT VAV REHEAT 8, Reheat Coil Sizing Air Volume Flow Rate [m3/s], 0.21198
 Component Sizing Information, Coil:Heating:Water, COIL HEATING WATER 9, Maximum Water Flow Rate [m3/s], 1.50288E-004
 Component Sizing Information, Coil:Heating:Water, COIL HEATING WATER 9, Design Coil Load [W], 6917.82119
 Component Sizing Information, Coil:Heating:Water, COIL HEATING WATER 9, U-Factor Times Area Value [W/K], 256.28470
Water Heating Coil Capacity Information,Coil:Heating:Water,COIL HEATING WATER 9,9334.46
 Component Sizing Information, AirTerminal:SingleDuct:VAV:Reheat, AIR TERMINAL SINGLE DUCT VAV REHEAT 18, Maximum Air Flow Rate [m3/s], 1.13734
 Component Sizing Information, AirTerminal:SingleDuct:VAV:Reheat, AIR TERMINAL SINGLE DUCT VAV REHEAT 18, Maximum Flow per Zone Floor Area during Reheat [m3/s-m2], 1.73278E-003
 Component Sizing Information, AirTerminal:SingleDuct:VAV:Reheat, AIR TERMINAL SINGLE DUCT VAV REHEAT 18, Maximum Flow Fraction during Reheat [], 1.00000
 Component Sizing Information, AirTerminal:SingleDuct:VAV:Reheat, AIR TERMINAL SINGLE DUCT VAV REHEAT 18, Maximum Reheat Water Flow Rate [m3/s], 2.41906E-004
 Component Sizing Information, AirTerminal:SingleDuct:VAV:Reheat, AIR TERMINAL SINGLE DUCT VAV REHEAT 18, Reheat Coil Sizing Air Volume Flow Rate [m3/s], 0.34120
 Component Sizing Information, Coil:Heating:Water, COIL HEATING WATER 19, Maximum Water Flow Rate [m3/s], 2.41906E-004
 Component Sizing Information, Coil:Heating:Water, COIL HEATING WATER 19, Design Coil Load [W], 11134.98606
 Component Sizing Information, Coil:Heating:Water, COIL HEATING WATER 19, U-Factor Times Area Value [W/K], 777.35117
Water Heating Coil Capacity Information,Coil:Heating:Water,COIL HEATING WATER 19,19939.83
 Component Sizing Information, AirTerminal:SingleDuct:VAV:Reheat, AIR TERMINAL SINGLE DUCT VAV REHEAT 5, Maximum Air Flow Rate [m3/s], 0.52781
 Component Sizing Information, AirTerminal:SingleDuct:VAV:Reheat, AIR TERMINAL SINGLE DUCT VAV REHEAT 5, Maximum Flow per Zone Floor Area during Reheat [m3/s-m2], 2.03200E-003
 Component Sizing Information, AirTerminal:SingleDuct:VAV:Reheat, AIR TERMINAL SINGLE DUCT VAV REHEAT 5, Maximum Flow Fraction during Reheat [], 0.33055
 Component Sizing Information, AirTerminal:SingleDuct:VAV:Reheat, AIR TERMINAL SINGLE DUCT VAV REHEAT 5, Maximum Reheat Water Flow Rate [m3/s], 1.79189E-004
 Component Sizing Information, AirTerminal:SingleDuct:VAV:Reheat, AIR TERMINAL SINGLE DUCT VAV REHEAT 5, Reheat Coil Sizing Air Volume Flow Rate [m3/s], 0.25274
 Component Sizing Information, Coil:Heating:Water, COIL HEATING WATER 6, Maximum Water Flow Rate [m3/s], 1.79189E-004
 Component Sizing Information, Coil:Heating:Water, COIL HEATING WATER 6, Design Coil Load [W], 8248.11681
 Component Sizing Information, Coil:Heating:Water, COIL HEATING WATER 6, U-Factor Times Area Value [W/K], 360.74945
Water Heating Coil Capacity Information,Coil:Heating:Water,COIL HEATING WATER 6,12128.97
 Component Sizing Information, AirTerminal:SingleDuct:VAV:Reheat, AIR TERMINAL SINGLE DUCT VAV REHEAT 23, Maximum Air Flow Rate [m3/s], 0.51283
 Component Sizing Information, AirTerminal:SingleDuct:VAV:Reheat, AIR TERMINAL SINGLE DUCT VAV REHEAT 23, Maximum Flow per Zone Floor Area during Reheat [m3/s-m2], 2.03200E-003
 Component Sizing Information, AirTerminal:SingleDuct:VAV:Reheat, AIR TERMINAL SINGLE DUCT VAV REHEAT 23, Maximum Flow Fraction during Reheat [], 0.34020
 Component Sizing Information, AirTerminal:SingleDuct:VAV:Reheat, AIR TERMINAL SINGLE DUCT VAV REHEAT 23, Maximum Reheat Water Flow Rate [m3/s], 1.51823E-004
 Component Sizing Information, AirTerminal:SingleDuct:VAV:Reheat, AIR TERMINAL SINGLE DUCT VAV REHEAT 23, Reheat Coil Sizing Air Volume Flow Rate [m3/s], 0.21414
 Component Sizing Information, Coil:Heating:Water, COIL HEATING WATER 24, Maximum Water Flow Rate [m3/s], 1.51823E-004
 Component Sizing Information, Coil:Heating:Water, COIL HEATING WATER 24, Design Coil Load [W], 6988.46213
 Component Sizing Information, Coil:Heating:Water, COIL HEATING WATER 24, U-Factor Times Area Value [W/K], 350.51146
Water Heating Coil Capacity Information,Coil:Heating:Water,COIL HEATING WATER 24,10963.33
 Component Sizing Information, AirTerminal:SingleDuct:VAV:Reheat, AIR TERMINAL SINGLE DUCT VAV REHEAT 25, Maximum Air Flow Rate [m3/s], 0.71152
 Component Sizing Information, AirTerminal:SingleDuct:VAV:Reheat, AIR TERMINAL SINGLE DUCT VAV REHEAT 25, Maximum Flow per Zone Floor Area during Reheat [m3/s-m2], 2.48614E-003
 Component Sizing Information, AirTerminal:SingleDuct:VAV:Reheat, AIR TERMINAL SINGLE DUCT VAV REHEAT 25, Maximum Flow Fraction during Reheat [], 0.30000
 Component Sizing Information, AirTerminal:SingleDuct:VAV:Reheat, AIR TERMINAL SINGLE DUCT VAV REHEAT 25, Maximum Reheat Water Flow Rate [m3/s], 2.00144E-004
 Component Sizing Information, AirTerminal:SingleDuct:VAV:Reheat, AIR TERMINAL SINGLE DUCT VAV REHEAT 25, Reheat Coil Sizing Air Volume Flow Rate [m3/s], 0.28230
 Component Sizing Information, Coil:Heating:Water, COIL HEATING WATER 26, Maximum Water Flow Rate [m3/s], 2.00144E-004
 Component Sizing Information, Coil:Heating:Water, COIL HEATING WATER 26, Design Coil Load [W], 9212.68172
 Component Sizing Information, Coil:Heating:Water, COIL HEATING WATER 26, U-Factor Times Area Value [W/K], 486.31579
Water Heating Coil Capacity Information,Coil:Heating:Water,COIL HEATING WATER 26,14784.19
 Component Sizing Information, AirTerminal:SingleDuct:VAV:Reheat, AIR TERMINAL SINGLE DUCT VAV REHEAT 12, Maximum Air Flow Rate [m3/s], 0.69018
 Component Sizing Information, AirTerminal:SingleDuct:VAV:Reheat, AIR TERMINAL SINGLE DUCT VAV REHEAT 12, Maximum Flow per Zone Floor Area during Reheat [m3/s-m2], 2.41157E-003
 Component Sizing Information, AirTerminal:SingleDuct:VAV:Reheat, AIR TERMINAL SINGLE DUCT VAV REHEAT 12, Maximum Flow Fraction during Reheat [], 0.30000
 Component Sizing Information, AirTerminal:SingleDuct:VAV:Reheat, AIR TERMINAL SINGLE DUCT VAV REHEAT 12, Maximum Reheat Water Flow Rate [m3/s], 1.51861E-004
 Component Sizing Information, AirTerminal:SingleDuct:VAV:Reheat, AIR TERMINAL SINGLE DUCT VAV REHEAT 12, Reheat Coil Sizing Air Volume Flow Rate [m3/s], 0.21420
 Component Sizing Information, Coil:Heating:Water, COIL HEATING WATER 13, Maximum Water Flow Rate [m3/s], 1.51861E-004
 Component Sizing Information, Coil:Heating:Water, COIL HEATING WATER 13, Design Coil Load [W], 6990.22790
 Component Sizing Information, Coil:Heating:Water, COIL HEATING WATER 13, U-Factor Times Area Value [W/K], 471.72856
Water Heating Coil Capacity Information,Coil:Heating:Water,COIL HEATING WATER 13,12368.15
 Component Sizing Information, AirTerminal:SingleDuct:VAV:Reheat, AIR TERMINAL SINGLE DUCT VAV REHEAT 13, Maximum Air Flow Rate [m3/s], 0.25238
 Component Sizing Information, AirTerminal:SingleDuct:VAV:Reheat, AIR TERMINAL SINGLE DUCT VAV REHEAT 13, Maximum Flow per Zone Floor Area during Reheat [m3/s-m2], 2.03200E-003
 Component Sizing Information, AirTerminal:SingleDuct:VAV:Reheat, AIR TERMINAL SINGLE DUCT VAV REHEAT 13, Maximum Flow Fraction during Reheat [], 0.69129
 Component Sizing Information, AirTerminal:SingleDuct:VAV:Reheat, AIR TERMINAL SINGLE DUCT VAV REHEAT 13, Maximum Reheat Water Flow Rate [m3/s], 1.78931E-004
 Component Sizing Information, AirTerminal:SingleDuct:VAV:Reheat, AIR TERMINAL SINGLE DUCT VAV REHEAT 13, Reheat Coil Sizing Air Volume Flow Rate [m3/s], 0.25238
 Component Sizing Information, Coil:Heating:Water, COIL HEATING WATER 14, Maximum Water Flow Rate [m3/s], 1.78931E-004
 Component Sizing Information, Coil:Heating:Water, COIL HEATING WATER 14, Design Coil Load [W], 8236.23923
 Component Sizing Information, Coil:Heating:Water, COIL HEATING WATER 14, U-Factor Times Area Value [W/K], 172.49551
Water Heating Coil Capacity Information,Coil:Heating:Water,COIL HEATING WATER 14,7802.66
 Component Sizing Information, AirTerminal:SingleDuct:VAV:Reheat, AIR TERMINAL SINGLE DUCT VAV REHEAT 19, Maximum Air Flow Rate [m3/s], 0.50976
 Component Sizing Information, AirTerminal:SingleDuct:VAV:Reheat, AIR TERMINAL SINGLE DUCT VAV REHEAT 19, Maximum Flow per Zone Floor Area during Reheat [m3/s-m2], 2.03200E-003
 Component Sizing Information, AirTerminal:SingleDuct:VAV:Reheat, AIR TERMINAL SINGLE DUCT VAV REHEAT 19, Maximum Flow Fraction during Reheat [], 0.34225
 Component Sizing Information, AirTerminal:SingleDuct:VAV:Reheat, AIR TERMINAL SINGLE DUCT VAV REHEAT 19, Maximum Reheat Water Flow Rate [m3/s], 1.50288E-004
[...]
 Warmup Convergence Information,THERMAL ZONE 20,SizingPeriod: PHOENIX SKY HARBOR INTL AP ANN CLG 1% CONDNS DB=>MWB,3.5866502943E-002,7.5395012991E-002,Pass,Pass,2.1380039720E-002,2.3416316145E-002,Pass,Pass
 Warmup Convergence Information,THERMAL ZONE 14,SizingPeriod: PHOENIX SKY HARBOR INTL AP ANN CLG 1% CONDNS DB=>MWB,3.0371439318E-002,6.6596367650E-002,Pass,Pass,2.1171701725E-002,2.2143045828E-002,Pass,Pass
 Warmup Convergence Information,THERMAL ZONE 7,SizingPeriod: PHOENIX SKY HARBOR INTL AP ANN CLG 1% CONDNS DB=>MWB,6.5675585811E-003,1.6356172189E-002,Pass,Pass,2.0663702805E-002,1.3198445752E-002,Pass,Pass
 Warmup Convergence Information,THERMAL ZONE 19,SizingPeriod: PHOENIX SKY HARBOR INTL AP ANN CLG 1% CONDNS DB=>MWB,6.4147787238E-005,7.7584783334E-005,Pass,Pass,3.8346982721E-003,4.7033861154E-003,Pass,Pass
 Warmup Convergence Information,THERMAL ZONE 6,SizingPeriod: PHOENIX SKY HARBOR INTL AP ANN CLG 1% CONDNS DB=>MWB,6.8144592761E-002,0.1271830070,Pass,Pass,2.3846335019E-002,3.0670015498E-002,Pass,Pass
 Warmup Convergence Information,THERMAL ZONE 9,SizingPeriod: PHOENIX SKY HARBOR INTL AP ANN CLG 1% CONDNS DB=>MWB,5.3525081546E-005,6.4369433944E-005,Pass,Pass,1.7101292654E-002,1.3506919378E-002,Pass,Pass
 Warmup Convergence Information,THERMAL ZONE 2,SizingPeriod: PHOENIX SKY HARBOR INTL AP ANN CLG 1% CONDNS DB=>MWB,7.2262711501E-005,7.6012513839E-005,Pass,Pass,3.6276690428E-003,1.0814063306E-002,Pass,Pass
 Warmup Convergence Information,THERMAL ZONE 18,SizingPeriod: PHOENIX SKY HARBOR INTL AP ANN CLG 1% CONDNS DB=>MWB,2.9301650248E-002,6.5449419449E-002,Pass,Pass,2.1162488568E-002,2.2601137933E-002,Pass,Pass
 Warmup Convergence Information,THERMAL ZONE 16,SizingPeriod: PHOENIX SKY HARBOR INTL AP ANN CLG 1% CONDNS DB=>MWB,5.3566927310E-005,6.4422629676E-005,Pass,Pass,1.7275029515E-002,1.3559458040E-002,Pass,Pass
 Warmup Convergence Information,THERMAL ZONE 24,SizingPeriod: PHOENIX SKY HARBOR INTL AP ANN CLG 1% CONDNS DB=>MWB,8.0556496466E-005,8.2417862356E-005,Pass,Pass,3.3456961387E-003,1.1480459067E-002,Pass,Pass
 Warmup Convergence Information,THERMAL ZONE 17,SizingPeriod: PHOENIX SKY HARBOR INTL AP ANN CLG 1% CONDNS DB=>MWB,7.4440087552E-002,6.0539786056E-002,Pass,Pass,2.5952599033E-002,3.9533084561E-002,Pass,Pass
 Warmup Convergence Information,THERMAL ZONE 5,SizingPeriod: PHOENIX SKY HARBOR INTL AP ANN CLG 1% CONDNS DB=>MWB,1.0622756574E-002,2.1958103085E-002,Pass,Pass,2.0471425273E-002,1.4106569930E-002,Pass,Pass
 Warmup Convergence Information,THERMAL ZONE 22,SizingPeriod: PHOENIX SKY HARBOR INTL AP ANN CLG 1% CONDNS DB=>MWB,2.6571292040E-002,3.7255353066E-002,Pass,Pass,2.2077972665E-002,2.0341473586E-002,Pass,Pass
 Warmup Convergence Information,THERMAL ZONE 12,SizingPeriod: PHOENIX SKY HARBOR INTL AP ANN CLG 1% CONDNS DB=>MWB,3.0045480486E-002,3.8500864444E-002,Pass,Pass,2.2156460041E-002,2.1023865945E-002,Pass,Pass
 Warmup Convergence Information,THERMAL ZONE 8,SizingPeriod: PHOENIX SKY HARBOR INTL AP ANN CLG 1% CONDNS DB=>MWB,2.6045734456E-002,5.6410847997E-002,Pass,Pass,2.0179325891E-002,2.5185700028E-002,Pass,Pass
 Warmup Convergence Information,THERMAL ZONE 11,SizingPeriod: PHOENIX SKY HARBOR INTL AP ANN CLG 1% CONDNS DB=>MWB,1.1489908509E-002,2.3274592685E-002,Pass,Pass,2.0497948295E-002,1.4544549949E-002,Pass,Pass
 Warmup Convergence Information,THERMAL ZONE 25,SizingPeriod: PHOENIX SKY HARBOR INTL AP ANN CLG 1% CONDNS DB=>MWB,1.6497822544E-002,2.9494584212E-002,Pass,Pass,2.0681327041E-002,1.5335610730E-002,Pass,Pass
 Warmup Convergence Information,THERMAL ZONE 13,SizingPeriod: PHOENIX SKY HARBOR INTL AP ANN CLG 1% CONDNS DB=>MWB,5.7372602857E-005,5.7626175657E-005,Pass,Pass,1.3018478935E-002,3.0863612409E-002,Pass,Pass
 Warmup Convergence Information,THERMAL ZONE 4,SizingPeriod: PHOENIX SKY HARBOR INTL AP ANN CLG 1% CONDNS DB=>MWB,7.1352740264E-005,7.4877626648E-005,Pass,Pass,3.5504898335E-003,1.0557872008E-002,Pass,Pass
 Warmup Convergence Information,THERMAL ZONE 1,SizingPeriod: PHOENIX SKY HARBOR INTL AP ANN CLG 1% CONDNS DB=>MWB,3.6739946143E-002,4.2079965543E-002,Pass,Pass,2.2466607177E-002,2.2093209144E-002,Pass,Pass
 Warmup Convergence Information,THERMAL ZONE 15,SizingPeriod: PHOENIX SKY HARBOR INTL AP ANN CLG 1% CONDNS DB=>MWB,5.3788044172E-005,6.4697034678E-005,Pass,Pass,1.8156033209E-002,1.3721839647E-002,Pass,Pass
Environment,PHOENIX SKY HARBOR INTL AP ANN CLG .4% CONDNS ENTH=>MDB,SizingPeriod:DesignDay,07/21,07/21,SummerDesignDay,1,N/A,N/A,N/A,N/A,N/A,N/A
Environment:Daylight Saving,No,SizingPeriod:DesignDay
Environment:Design Day Data,35.30,12.00,DefaultMultipliers,97342,260,4.1,0.00,No ,No 
Environment:Design_Day_Misc,202,1084.4,0.2082,0.1365,1.0,-6.23,20.6,ASHRAETau
Environment:WarmupDays,  6
 Warmup Convergence Information,THERMAL ZONE 10,SizingPeriod: PHOENIX SKY HARBOR INTL AP ANN CLG .4% CONDNS ENTH=>MDB,6.1915663274E-002,5.3260278777E-002,Pass,Pass,2.1966427739E-002,2.6520510274E-002,Pass,Pass
 Warmup Convergence Information,THERMAL ZONE 21,SizingPeriod: PHOENIX SKY HARBOR INTL AP ANN CLG .4% CONDNS ENTH=>MDB,6.2187353419E-002,0.1076239389,Pass,Pass,2.0330705246E-002,2.1530780072E-002,Pass,Pass
 Warmup Convergence Information,THERMAL ZONE 23,SizingPeriod: PHOENIX SKY HARBOR INTL AP ANN CLG .4% CONDNS ENTH=>MDB,7.9739710672E-002,8.8176286001E-002,Pass,Pass,2.1798266636E-002,2.2538452691E-002,Pass,Pass
 Warmup Convergence Information,THERMAL ZONE 3,SizingPeriod: PHOENIX SKY HARBOR INTL AP ANN CLG .4% CONDNS ENTH=>MDB,2.7157004930E-002,5.8567590510E-002,Pass,Pass,1.7822570866E-002,1.6294866029E-002,Pass,Pass
 Warmup Convergence Information,THERMAL ZONE 20,SizingPeriod: PHOENIX SKY HARBOR INTL AP ANN CLG .4% CONDNS ENTH=>MDB,6.8203103382E-002,0.1133693240,Pass,Pass,2.1000403724E-002,2.4502682104E-002,Pass,Pass
 Warmup Convergence Information,THERMAL ZONE 14,SizingPeriod: PHOENIX SKY HARBOR INTL AP ANN CLG .4% CONDNS ENTH=>MDB,6.2317880382E-002,0.1086042806,Pass,Pass,2.0719389298E-002,2.2238843154E-002,Pass,Pass
 Warmup Convergence Information,THERMAL ZONE 7,SizingPeriod: PHOENIX SKY HARBOR INTL AP ANN CLG .4% CONDNS ENTH=>MDB,4.7126689979E-002,5.7205322749E-002,Pass,Pass,1.9099661600E-002,1.7374825879E-002,Pass,Pass
 Warmup Convergence Information,THERMAL ZONE 19,SizingPeriod: PHOENIX SKY HARBOR INTL AP ANN CLG .4% CONDNS ENTH=>MDB,5.9230304827E-003,1.7919165407E-002,Pass,Pass,6.8467632710E-003,1.5048998612E-002,Pass,Pass
 Warmup Convergence Information,THERMAL ZONE 6,SizingPeriod: PHOENIX SKY HARBOR INTL AP ANN CLG .4% CONDNS ENTH=>MDB,8.3685655906E-002,0.1527737832,Pass,Pass,2.9140491190E-002,3.3575925559E-002,Pass,Pass
 Warmup Convergence Information,THERMAL ZONE 9,SizingPeriod: PHOENIX SKY HARBOR INTL AP ANN CLG .4% CONDNS ENTH=>MDB,2.1249464088E-002,5.3630213717E-002,Pass,Pass,1.8052447206E-002,1.7210577481E-002,Pass,Pass
 Warmup Convergence Information,THERMAL ZONE 2,SizingPeriod: PHOENIX SKY HARBOR INTL AP ANN CLG .4% CONDNS ENTH=>MDB,1.3549462615E-002,3.8093819697E-002,Pass,Pass,6.5918553160E-003,1.3279262330E-002,Pass,Pass
 Warmup Convergence Information,THERMAL ZONE 18,SizingPeriod: PHOENIX SKY HARBOR INTL AP ANN CLG .4% CONDNS ENTH=>MDB,6.1479166462E-002,0.1078722716,Pass,Pass,2.0666184656E-002,2.2443562598E-002,Pass,Pass
 Warmup Convergence Information,THERMAL ZONE 16,SizingPeriod: PHOENIX SKY HARBOR INTL AP ANN CLG .4% CONDNS ENTH=>MDB,2.1865067412E-002,5.4398083766E-002,Pass,Pass,1.8122127672E-002,1.7449681818E-002,Pass,Pass
 Warmup Convergence Information,THERMAL ZONE 24,SizingPeriod: PHOENIX SKY HARBOR INTL AP ANN CLG .4% CONDNS ENTH=>MDB,1.5009443470E-002,4.1553608418E-002,Pass,Pass,6.3504684369E-003,1.3155236486E-002,Pass,Pass
 Warmup Convergence Information,THERMAL ZONE 17,SizingPeriod: PHOENIX SKY HARBOR INTL AP ANN CLG .4% CONDNS ENTH=>MDB,8.5791062559E-002,0.1004084118,Pass,Pass,3.0812684509E-002,3.9505864049E-002,Pass,Pass
 Warmup Convergence Information,THERMAL ZONE 5,SizingPeriod: PHOENIX SKY HARBOR INTL AP ANN CLG .4% CONDNS ENTH=>MDB,4.4180230294E-002,5.2613216468E-002,Pass,Pass,1.9338855759E-002,1.7830076115E-002,Pass,Pass
 Warmup Convergence Information,THERMAL ZONE 22,SizingPeriod: PHOENIX SKY HARBOR INTL AP ANN CLG .4% CONDNS ENTH=>MDB,6.4637259164E-002,5.6149493453E-002,Pass,Pass,2.1838887266E-002,2.5859157508E-002,Pass,Pass
 Warmup Convergence Information,THERMAL ZONE 12,SizingPeriod: PHOENIX SKY HARBOR INTL AP ANN CLG .4% CONDNS ENTH=>MDB,6.1306826189E-002,5.2459322107E-002,Pass,Pass,2.1909827058E-002,2.6328488441E-002,Pass,Pass
 Warmup Convergence Information,THERMAL ZONE 8,SizingPeriod: PHOENIX SKY HARBOR INTL AP ANN CLG .4% CONDNS ENTH=>MDB,6.1667441166E-002,8.8927803524E-002,Pass,Pass,1.8643441375E-002,2.3039712860E-002,Pass,Pass
 Warmup Convergence Information,THERMAL ZONE 11,SizingPeriod: PHOENIX SKY HARBOR INTL AP ANN CLG .4% CONDNS ENTH=>MDB,4.4903691075E-002,5.3731386392E-002,Pass,Pass,1.9385612761E-002,1.7841972077E-002,Pass,Pass
 Warmup Convergence Information,THERMAL ZONE 25,SizingPeriod: PHOENIX SKY HARBOR INTL AP ANN CLG .4% CONDNS ENTH=>MDB,5.0713403764E-002,6.1409659930E-002,Pass,Pass,1.9560887574E-002,1.7756986113E-002,Pass,Pass
 Warmup Convergence Information,THERMAL ZONE 13,SizingPeriod: PHOENIX SKY HARBOR INTL AP ANN CLG .4% CONDNS ENTH=>MDB,6.3412121015E-003,1.8411771625E-002,Pass,Pass,1.8675164423E-002,3.4321861789E-002,Pass,Pass
 Warmup Convergence Information,THERMAL ZONE 4,SizingPeriod: PHOENIX SKY HARBOR INTL AP ANN CLG .4% CONDNS ENTH=>MDB,1.2624246826E-002,3.5759512034E-002,Pass,Pass,6.4220673364E-003,1.2747045132E-002,Pass,Pass
 Warmup Convergence Information,THERMAL ZONE 1,SizingPeriod: PHOENIX SKY HARBOR INTL AP ANN CLG .4% CONDNS ENTH=>MDB,6.7965489672E-002,6.0086985245E-002,Pass,Pass,2.2240293994E-002,2.5978460464E-002,Pass,Pass
 Warmup Convergence Information,THERMAL ZONE 15,SizingPeriod: PHOENIX SKY HARBOR INTL AP ANN CLG .4% CONDNS ENTH=>MDB,2.7034771385E-002,5.8186036622E-002,Pass,Pass,1.8279794953E-002,1.6898881843E-002,Pass,Pass
Environment,PHOENIX SKY HARBOR INTL AP ANN HUM_N 99% CONDNS DP=>MCDB,SizingPeriod:DesignDay,12/21,12/21,WinterDesignDay,1,N/A,N/A,N/A,N/A,N/A,N/A
Environment:Daylight Saving,No,SizingPeriod:DesignDay
Environment:Design Day Data,17.00,0.00,DefaultMultipliers,97342,100,1.7,0.00,No ,No 
Environment:Design_Day_Misc,355,1232.8,0.1424,5.7719E-002,1.0,2.45,-23.5,ASHRAEClearSky
Environment:WarmupDays,  6
 Warmup Convergence Information,THERMAL ZONE 10,SizingPeriod: PHOENIX SKY HARBOR INTL AP ANN HUM_N 99% CONDNS DP=>MCDB,3.2257904295E-003,1.8997290247E-003,Pass,Pass,1.0957048804E-002,2.8544337043E-002,Pass,Pass
 Warmup Convergence Information,THERMAL ZONE 21,SizingPeriod: PHOENIX SKY HARBOR INTL AP ANN HUM_N 99% CONDNS DP=>MCDB,1.4494316439E-003,1.6936670927E-003,Pass,Pass,8.6529643203E-003,3.7789409470E-002,Pass,Pass
 Warmup Convergence Information,THERMAL ZONE 23,SizingPeriod: PHOENIX SKY HARBOR INTL AP ANN HUM_N 99% CONDNS DP=>MCDB,2.9936332111E-003,1.3644360277E-003,Pass,Pass,5.8093535912E-003,1.6667170082E-002,Pass,Pass
 Warmup Convergence Information,THERMAL ZONE 3,SizingPeriod: PHOENIX SKY HARBOR INTL AP ANN HUM_N 99% CONDNS DP=>MCDB,1.3453544706E-003,1.1609908486E-003,Pass,Pass,8.4982467092E-003,3.7905784484E-002,Pass,Pass
 Warmup Convergence Information,THERMAL ZONE 20,SizingPeriod: PHOENIX SKY HARBOR INTL AP ANN HUM_N 99% CONDNS DP=>MCDB,1.7534744966E-003,2.2606988189E-003,Pass,Pass,7.5876844297E-003,2.5791873222E-002,Pass,Pass
 Warmup Convergence Information,THERMAL ZONE 14,SizingPeriod: PHOENIX SKY HARBOR INTL AP ANN HUM_N 99% CONDNS DP=>MCDB,4.6943105837E-003,1.6767665495E-004,Pass,Pass,1.7176678349E-002,2.6467888990E-002,Pass,Pass
 Warmup Convergence Information,THERMAL ZONE 7,SizingPeriod: PHOENIX SKY HARBOR INTL AP ANN HUM_N 99% CONDNS DP=>MCDB,1.4765891435E-003,2.0038336794E-003,Pass,Pass,8.8609081850E-003,3.7682346345E-002,Pass,Pass
 Warmup Convergence Information,THERMAL ZONE 19,SizingPeriod: PHOENIX SKY HARBOR INTL AP ANN HUM_N 99% CONDNS DP=>MCDB,5.7549948373E-004,8.5030071540E-004,Pass,Pass,1.0852074214E-002,6.1400841656E-002,Pass,Pass
 Warmup Convergence Information,THERMAL ZONE 6,SizingPeriod: PHOENIX SKY HARBOR INTL AP ANN HUM_N 99% CONDNS DP=>MCDB,2.7324580941E-003,1.7023066820E-003,Pass,Pass,7.0046209949E-003,1.6808930386E-002,Pass,Pass
 Warmup Convergence Information,THERMAL ZONE 9,SizingPeriod: PHOENIX SKY HARBOR INTL AP ANN HUM_N 99% CONDNS DP=>MCDB,2.0609273323E-005,6.0914152428E-005,Pass,Pass,4.1084053151E-003,2.8285689062E-002,Pass,Pass
 Warmup Convergence Information,THERMAL ZONE 2,SizingPeriod: PHOENIX SKY HARBOR INTL AP ANN HUM_N 99% CONDNS DP=>MCDB,1.0140588103E-003,7.4022528865E-004,Pass,Pass,2.4417553724E-002,1.6865554348E-002,Pass,Pass
 Warmup Convergence Information,THERMAL ZONE 18,SizingPeriod: PHOENIX SKY HARBOR INTL AP ANN HUM_N 99% CONDNS DP=>MCDB,2.4988392901E-003,6.6736818145E-004,Pass,Pass,9.9265769279E-003,2.7088087100E-002,Pass,Pass
 Warmup Convergence Information,THERMAL ZONE 16,SizingPeriod: PHOENIX SKY HARBOR INTL AP ANN HUM_N 99% CONDNS DP=>MCDB,4.1463684657E-005,1.2342141747E-004,Pass,Pass,4.1166887659E-003,2.8339812222E-002,Pass,Pass
 Warmup Convergence Information,THERMAL ZONE 24,SizingPeriod: PHOENIX SKY HARBOR INTL AP ANN HUM_N 99% CONDNS DP=>MCDB,7.7560584015E-004,5.0373671307E-004,Pass,Pass,9.5632096397E-003,6.4486551649E-003,Pass,Pass
 Warmup Convergence Information,THERMAL ZONE 17,SizingPeriod: PHOENIX SKY HARBOR INTL AP ANN HUM_N 99% CONDNS DP=>MCDB,2.2143549412E-004,9.4015133617E-004,Pass,Pass,2.6655932075E-003,1.6920778152E-002,Pass,Pass
 Warmup Convergence Information,THERMAL ZONE 5,SizingPeriod: PHOENIX SKY HARBOR INTL AP ANN HUM_N 99% CONDNS DP=>MCDB,4.7955219827E-006,1.5615085569E-005,Pass,Pass,4.1209336188E-003,2.8361866951E-002,Pass,Pass
 Warmup Convergence Information,THERMAL ZONE 22,SizingPeriod: PHOENIX SKY HARBOR INTL AP ANN HUM_N 99% CONDNS DP=>MCDB,2.2172576240E-003,1.3316095984E-003,Pass,Pass,9.2516350759E-003,3.7743755348E-002,Pass,Pass
 Warmup Convergence Information,THERMAL ZONE 12,SizingPeriod: PHOENIX SKY HARBOR INTL AP ANN HUM_N 99% CONDNS DP=>MCDB,2.0249491603E-003,1.7185467621E-003,Pass,Pass,8.9361381732E-003,2.7504425838E-002,Pass,Pass
 Warmup Convergence Information,THERMAL ZONE 8,SizingPeriod: PHOENIX SKY HARBOR INTL AP ANN HUM_N 99% CONDNS DP=>MCDB,2.4551084274E-003,6.9108543354E-004,Pass,Pass,6.4080391056E-003,1.7419337224E-002,Pass,Pass
 Warmup Convergence Information,THERMAL ZONE 11,SizingPeriod: PHOENIX SKY HARBOR INTL AP ANN HUM_N 99% CONDNS DP=>MCDB,6.3166714192E-006,9.4691875417E-006,Pass,Pass,4.1364916787E-003,2.8471264218E-002,Pass,Pass
 Warmup Convergence Information,THERMAL ZONE 25,SizingPeriod: PHOENIX SKY HARBOR INTL AP ANN HUM_N 99% CONDNS DP=>MCDB,1.7327776192E-004,5.4615332372E-004,Pass,Pass,3.9825569317E-003,2.6586435970E-002,Pass,Pass
 Warmup Convergence Information,THERMAL ZONE 13,SizingPeriod: PHOENIX SKY HARBOR INTL AP ANN HUM_N 99% CONDNS DP=>MCDB,1.5964500656E-003,1.0883038103E-003,Pass,Pass,5.3584139665E-003,3.6934029893E-003,Pass,Pass
 Warmup Convergence Information,THERMAL ZONE 4,SizingPeriod: PHOENIX SKY HARBOR INTL AP ANN HUM_N 99% CONDNS DP=>MCDB,8.9000635320E-004,7.6176963388E-004,Pass,Pass,1.6653850452E-002,1.8336481414E-002,Pass,Pass
 Warmup Convergence Information,THERMAL ZONE 1,SizingPeriod: PHOENIX SKY HARBOR INTL AP ANN HUM_N 99% CONDNS DP=>MCDB,3.7176130737E-003,1.2092398585E-003,Pass,Pass,1.3322955721E-002,2.5911119517E-002,Pass,Pass
 Warmup Convergence Information,THERMAL ZONE 15,SizingPeriod: PHOENIX SKY HARBOR INTL AP ANN HUM_N 99% CONDNS DP=>MCDB,6.6817569532E-004,1.1317300938E-003,Pass,Pass,4.7377842719E-003,2.7098554106E-002,Pass,Pass
Environment,RUN PERIOD 1,WeatherFileRunPeriod,01/01,12/31,Thursday,365,Use RunPeriod Specified Day,Yes,Yes,No ,Yes,Yes
Environment:Daylight Saving,No,
Environment:WarmupDays,  6
 Warmup Convergence Information,THERMAL ZONE 10,RunPeriod: RUN PERIOD 1,6.1078576013E-002,0.1313000640,Pass,Pass,0.1936784741,0.7503890812,Pass,Pass
 Warmup Convergence Information,THERMAL ZONE 21,RunPeriod: RUN PERIOD 1,4.5711076087E-002,8.6011531840E-002,Pass,Pass,6.7829140557E-002,0.1123797779,Pass,Pass
 Warmup Convergence Information,THERMAL ZONE 23,RunPeriod: RUN PERIOD 1,8.4515206246E-002,0.1941224709,Pass,Pass,0.1562598435,0.3547839122,Pass,Pass
 Warmup Convergence Information,THERMAL ZONE 3,RunPeriod: RUN PERIOD 1,1.2213656532E-002,4.0452146776E-002,Pass,Pass,0.3285067806,1.9509561794,Pass,Pass
 Warmup Convergence Information,THERMAL ZONE 20,RunPeriod: RUN PERIOD 1,6.0215687084E-002,0.1053076224,Pass,Pass,0.1678757730,0.7323107951,Pass,Pass
 Warmup Convergence Information,THERMAL ZONE 14,RunPeriod: RUN PERIOD 1,6.1214038547E-002,0.1072071132,Pass,Pass,0.3022127630,1.4467737329,Pass,Pass
 Warmup Convergence Information,THERMAL ZONE 7,RunPeriod: RUN PERIOD 1,8.4291189575E-002,0.1504004416,Pass,Pass,0.1708510858,0.4708103329,Pass,Pass
 Warmup Convergence Information,THERMAL ZONE 19,RunPeriod: RUN PERIOD 1,8.7449659047E-002,0.1624962782,Pass,Pass,6.7023737313E-002,0.1167835128,Pass,Pass
 Warmup Convergence Information,THERMAL ZONE 6,RunPeriod: RUN PERIOD 1,6.5064578514E-002,0.1284711493,Pass,Pass,8.9325307414E-002,0.1642085332,Pass,Pass
 Warmup Convergence Information,THERMAL ZONE 9,RunPeriod: RUN PERIOD 1,2.6864810523E-002,6.2329268656E-002,Pass,Pass,7.4434323349E-002,0.1508501811,Pass,Pass
 Warmup Convergence Information,THERMAL ZONE 2,RunPeriod: RUN PERIOD 1,7.3766596473E-002,0.1558134223,Pass,Pass,2.1611758249E-002,5.9081778451E-002,Pass,Pass
 Warmup Convergence Information,THERMAL ZONE 18,RunPeriod: RUN PERIOD 1,5.9877291209E-002,0.1050666031,Pass,Pass,0.6280731621,3.6955456403,Pass,Pass
 Warmup Convergence Information,THERMAL ZONE 16,RunPeriod: RUN PERIOD 1,2.8444415118E-002,6.4187085242E-002,Pass,Pass,7.1240257933E-002,0.1396344569,Pass,Pass
 Warmup Convergence Information,THERMAL ZONE 24,RunPeriod: RUN PERIOD 1,8.3440137766E-002,0.1632935942,Pass,Pass,2.2927523552E-002,5.9894608456E-002,Pass,Pass
 Warmup Convergence Information,THERMAL ZONE 17,RunPeriod: RUN PERIOD 1,7.2771947272E-002,0.1698705460,Pass,Pass,1.0900500938,6.3811079719,Pass,Pass
 Warmup Convergence Information,THERMAL ZONE 5,RunPeriod: RUN PERIOD 1,8.4077873350E-002,0.1574102398,Pass,Pass,0.4974387267,2.8294871506,Pass,Pass
 Warmup Convergence Information,THERMAL ZONE 22,RunPeriod: RUN PERIOD 1,4.8947739623E-002,0.1147719179,Pass,Pass,0.1328735907,0.4117265027,Pass,Pass
 Warmup Convergence Information,THERMAL ZONE 12,RunPeriod: RUN PERIOD 1,6.0171289306E-002,0.1300485205,Pass,Pass,0.1925326645,0.7659289506,Pass,Pass
 Warmup Convergence Information,THERMAL ZONE 8,RunPeriod: RUN PERIOD 1,1.9497177294E-002,5.7410370099E-002,Pass,Pass,0.2677413174,0.7687117476,Pass,Pass
 Warmup Convergence Information,THERMAL ZONE 11,RunPeriod: RUN PERIOD 1,8.4045284596E-002,0.1572069256,Pass,Pass,0.1986601010,0.4671603779,Pass,Pass
 Warmup Convergence Information,THERMAL ZONE 25,RunPeriod: RUN PERIOD 1,8.4136048841E-002,0.1592665678,Pass,Pass,0.1746145005,0.4111756782,Pass,Pass
 Warmup Convergence Information,THERMAL ZONE 13,RunPeriod: RUN PERIOD 1,8.7772288458E-002,0.1426593899,Pass,Pass,0.1710546992,0.6020403219,Pass,Pass
 Warmup Convergence Information,THERMAL ZONE 4,RunPeriod: RUN PERIOD 1,7.6040015417E-002,0.1560110184,Pass,Pass,2.1034351729E-002,5.6341360626E-002,Pass,Pass
 Warmup Convergence Information,THERMAL ZONE 1,RunPeriod: RUN PERIOD 1,6.0388848326E-002,0.1301860062,Pass,Pass,0.1497962229,0.4632887726,Pass,Pass
 Warmup Convergence Information,THERMAL ZONE 15,RunPeriod: RUN PERIOD 1,2.7816844581E-002,6.3617803458E-002,Pass,Pass,8.8352354049E-002,0.2160734315,Pass,Pass
! <Program Control Information:Threads/Parallel Sims>, Threading Supported,Maximum Number of Threads, Env Set Threads (OMP_NUM_THREADS), EP Env Set Threads (EP_OMP_NUM_THREADS), IDF Set Threads, Number of Threads Used (Interior Radiant Exchange), Number Nominal Surfaces, Number Parallel Sims
Program Control:Threads/Parallel Sims, Yes,1, Not Set, Not Set, 1, 1, 170, N/A
End of Data
