Program Version,EnergyPlus-Linux-OMP-32 7.2.0.006, YMD=2013.05.16 19:26,IDD_Version 7.2.0.006
   ** Warning ** IP: Note -- Some missing fields have been filled with defaults. See the audit output file for details.
   ** Warning ** No Timestep object found.  Number of TimeSteps in Hour defaulted to 4.
   ************* Beginning Zone Sizing Calculations
   ** Warning ** ProcessScheduleInput: Schedule:Day:Interval="CHILLED_WATER_TEMPERATURE_SUMMER_DESIGN_DAY", Blank Schedule Type Limits Name input -- will not be validated.
   ** Warning ** ProcessScheduleInput: Schedule:Day:Interval="CHILLED_WATER_TEMPERATURE_DEFAULT", Blank Schedule Type Limits Name input -- will not be validated.
   ** Warning ** ProcessScheduleInput: Schedule:Day:Interval="CHILLED_WATER_TEMPERATURE_WINTER_DESIGN_DAY", Blank Schedule Type Limits Name input -- will not be validated.
   ** Warning ** ProcessScheduleInput: Schedule:Year="CHILLED_WATER_TEMPERATURE", Blank Schedule Type Limits Name input -- will not be validated.
   ** Warning ** ProcessScheduleInput: Schedule:Compact="SCHEDULE:COMPACT {E39949E5-6FD1-4F47-97F9-62FCEA10B671}", Blank Schedule Type Limits Name input -- will not be validated.
   ** Warning ** ProcessScheduleInput: Schedule:Compact="SCHEDULE:COMPACT {17A8E698-7DC7-4966-A052-C7D168B71E59}", Blank Schedule Type Limits Name input -- will not be validated.
   ** Warning ** ProcessScheduleInput: Schedule:Compact="PLANT LOOP 1 ON SCHEDULE", Blank Schedule Type Limits Name input -- will not be validated.
   ** Warning ** ProcessScheduleInput: Schedule:Compact="THERMAL ZONE 7 THERMOSTAT SCHEDULE", Blank Schedule Type Limits Name input -- will not be validated.
   ** Warning ** ProcessScheduleInput: Schedule:Compact="THERMAL ZONE 3 THERMOSTAT SCHEDULE", Blank Schedule Type Limits Name input -- will not be validated.
   ** Warning ** ProcessScheduleInput: Schedule:Compact="THERMAL ZONE 5 THERMOSTAT SCHEDULE", Blank Schedule Type Limits Name input -- will not be validated.
   ** Warning ** ProcessScheduleInput: Schedule:Compact="THERMAL ZONE 4 THERMOSTAT SCHEDULE", Blank Schedule Type Limits Name input -- will not be validated.
   ** Warning ** ProcessScheduleInput: Schedule:Compact="THERMAL ZONE 2 THERMOSTAT SCHEDULE", Blank Schedule Type Limits Name input -- will not be validated.
   ** Warning ** ProcessScheduleInput: Schedule:Compact="THERMAL ZONE 6 THERMOSTAT SCHEDULE", Blank Schedule Type Limits Name input -- will not be validated.
   ** Warning ** ProcessScheduleInput: Schedule:Compact="THERMAL ZONE 10 THERMOSTAT SCHEDULE", Blank Schedule Type Limits Name input -- will not be validated.
   ** Warning ** ProcessScheduleInput: Schedule:Compact="THERMAL ZONE 9 THERMOSTAT SCHEDULE", Blank Schedule Type Limits Name input -- will not be validated.
   ** Warning ** ProcessScheduleInput: Schedule:Compact="THERMAL ZONE 1 THERMOSTAT SCHEDULE", Blank Schedule Type Limits Name input -- will not be validated.
   ** Warning ** ProcessScheduleInput: Schedule:Compact="THERMAL ZONE 8 THERMOSTAT SCHEDULE", Blank Schedule Type Limits Name input -- will not be validated.
   ** Warning ** GetSurfaces: Surfaces with interface to Ground found but no "Ground Temperatures" were input.
   **   ~~~   ** Found first in surface=SURFACE 1
   **   ~~~   ** Defaults, constant throughout the year of (18.0) will be used.
   ** Warning ** CheckUsedConstructions: There are 6 nominally unused constructions in input.
   **   ~~~   ** For explicit details on each unused construction, use Output:Diagnostics,DisplayExtraWarnings;
   ** Warning ** GetInternalHeatGains: People=ASHRAE_90.1-2004 CLIMATEZONE 1-8 SMALLOFFICE WHOLEBUILDING PEOPLE", Activity Level Schedule Name values
   **   ~~~   ** fall outside typical range [70,1000] W/person for Thermal Comfort Reporting.
   **   ~~~   ** Schedule="SMALL OFFICE_ACTIVITY; Odd comfort values may result. Entered min/max range=[0.0,120.0] W/person.
   ** Warning ** GetSimpleAirModelInputs: ZoneInfiltration:DesignFlowRate="THERMAL ZONE 5 ASHRAE_90.1-2004 CLIMATEZONE 1-8 SMALLOFFICE WHOLEBUILDING INFILTRATION", Design Flow Rate Calculation Method specifies Flow per Exterior Surface Area, but Exterior Surface Area = 0.  0 Infiltration will result.
   ************* Beginning System Sizing Calculations
   ************* Beginning Plant Sizing Calculations
   ************* Testing Individual Branch Integrity
   ************* All Branches passed integrity testing
   ************* Testing Individual Supply Air Path Integrity
   ************* All Supply Air Paths passed integrity testing
   ************* Testing Individual Return Air Path Integrity
   ************* All Return Air Paths passed integrity testing
   ************* No node connection errors were found.
   ************* Beginning Simulation
   ** Warning ** Output:Table:Monthly=BUILDING MONTHLY COOLING LOAD REPORT, Variable name=OUTDOOR DRY BULB
   **   ~~~   ** Invalid aggregation type="VALUEWHENMAXMIN"  Defaulting to SumOrAverage.
   ** Severe  ** Output:Table:Monthly Name, duplicate name=END USE ENERGY CONSUMPTION ELECTRICITY MONTHLY
   ************* Simulation Error Summary *************
   ************* There are 1 unused schedules in input.
   ************* There are 1 unused week schedules in input.
   ************* There are 3 unused day schedules in input.
   ************* Use Output:Diagnostics,DisplayUnusedSchedules; to see them.
   *************
   ************* ===== Final Error Summary =====
   ************* The following error categories occurred.  Consider correcting or noting.
   ************* Nominally Unused Constructions
   ************* ..The nominally unused constructions warning is provided to alert you to potential conditions that can cause
   ************* ..extra time during simulation. Each construction is calculated by the algorithm indicated in the HeatBalanceAlgorithm
   ************* ..object. You may remove the constructions indicated (when you use the DisplayExtraWarnings option).
   *************
   ************* EnergyPlus Warmup Error Summary. During Warmup: 0 Warning; 0 Severe Errors.
   ************* EnergyPlus Sizing Error Summary. During Sizing: 21 Warning; 0 Severe Errors.
   ************* EnergyPlus Completed Successfully-- 24 Warning; 1 Severe Errors; Elapsed Time=00hr 25min 44.20sec
