Program Version,EnergyPlus-Linux-OMP-32 7.2.0.006, YMD=2013.07.01 22:16
! This file shows details about the branches, nodes, and other
! elements of the flow connections.
! This file is intended for use in "debugging" potential problems
! that may also be detected by the program, but may be more easily
! identified by "eye".
! This file is also intended to support software which draws a
! schematic diagram of the HVAC system.
! ===============================================================
! #Nodes,<Number of Unique Nodes>
 #Nodes,725                 
! <Node>,<NodeNumber>,<Node Name>,<Node Fluid Type>,<# Times Node Referenced After Definition>
 Node,1,NODE 257,Air,4
 Node,2,NODE 492,Air,4
 Node,3,NODE 612,Air,4
 Node,4,NODE 317,Air,4
 Node,5,NODE 172,Air,4
 Node,6,NODE 407,Air,4
 Node,7,NODE 592,Air,4
 Node,8,NODE 237,Air,4
 Node,9,NODE 562,Air,4
 Node,10,NODE 222,Air,4
 Node,11,NODE 617,Air,4
 Node,12,NODE 127,Air,4
 Node,13,NODE 597,Air,4
 Node,14,NODE 272,Air,4
 Node,15,NODE 577,Air,4
 Node,16,NODE 602,Air,4
 Node,17,NODE 367,Air,4
 Node,18,NODE 542,Air,4
 Node,19,NODE 307,Air,4
 Node,20,NODE 337,Air,4
 Node,21,NODE 557,Air,4
 Node,22,NODE 137,Air,4
 Node,23,NODE 212,Air,4
 Node,24,NODE 422,Air,4
 Node,25,NODE 537,Air,4
 Node,26,NODE 362,Air,4
 Node,27,NODE 282,Air,4
 Node,28,NODE 607,Air,4
 Node,29,NODE 457,Air,4
 Node,30,NODE 522,Air,4
 Node,31,NODE 447,Air,4
 Node,32,NODE 552,Air,4
 Node,33,NODE 302,Air,4
 Node,34,NODE 192,Air,4
 Node,35,NODE 297,Air,4
 Node,36,NODE 252,Air,4
 Node,37,NODE 247,Air,4
 Node,38,NODE 347,Air,4
 Node,39,NODE 412,Air,4
 Node,40,NODE 517,Air,4
 Node,41,NODE 152,Air,4
 Node,42,NODE 312,Air,4
 Node,43,NODE 357,Air,4
 Node,44,NODE 267,Air,4
 Node,45,NODE 547,Air,4
 Node,46,NODE 502,Air,4
 Node,47,NODE 202,Air,4
 Node,48,NODE 432,Air,4
 Node,49,NODE 167,Air,4
 Node,50,NODE 242,Air,4
 Node,51,NODE 507,Air,4
 Node,52,NODE 567,Air,4
 Node,53,NODE 452,Air,4
 Node,54,NODE 287,Air,4
 Node,55,NODE 342,Air,4
 Node,56,NODE 147,Air,4
 Node,57,NODE 157,Air,4
 Node,58,NODE 427,Air,4
 Node,59,NODE 372,Air,4
 Node,60,NODE 442,Air,4
 Node,61,NODE 482,Air,4
 Node,62,NODE 462,Air,4
 Node,63,NODE 532,Air,4
 Node,64,NODE 105,Air,4
 Node,65,NODE 142,Air,4
 Node,66,NODE 132,Air,4
 Node,67,NODE 182,Air,4
 Node,68,NODE 292,Air,4
 Node,69,NODE 332,Air,4
 Node,70,NODE 497,Air,4
 Node,71,NODE 582,Air,4
 Node,72,NODE 322,Air,4
 Node,73,NODE 587,Air,4
 Node,74,NODE 387,Air,4
 Node,75,NODE 487,Air,4
 Node,76,NODE 207,Air,4
 Node,77,NODE 232,Air,4
 Node,78,NODE 477,Air,4
 Node,79,NODE 277,Air,4
 Node,80,NODE 417,Air,4
 Node,81,NODE 467,Air,4
 Node,82,NODE 527,Air,4
 Node,83,NODE 262,Air,4
 Node,84,NODE 352,Air,4
 Node,85,NODE 327,Air,4
 Node,86,NODE 472,Air,4
 Node,87,NODE 187,Air,4
 Node,88,NODE 217,Air,4
 Node,89,NODE 162,Air,4
 Node,90,NODE 572,Air,4
 Node,91,NODE 397,Air,4
 Node,92,NODE 382,Air,4
 Node,93,NODE 512,Air,4
 Node,94,NODE 402,Air,4
 Node,95,NODE 197,Air,4
 Node,96,NODE 392,Air,4
 Node,97,NODE 177,Air,4
 Node,98,NODE 227,Air,4
 Node,99,NODE 377,Air,4
 Node,100,NODE 437,Air,4
 Node,101,NODE 101,Air,3
 Node,102,NODE 108,Air,6
 Node,103,NODE 109,Air,6
 Node,104,NODE 110,Air,8
 Node,105,NODE 102,Air,9
 Node,106,NODE 111,Water,2
 Node,107,NODE 117,Water,1
 Node,108,NODE 113,Water,1
 Node,109,NODE 118,Water,1
 Node,110,NODE 119,Water,1
 Node,111,NODE 120,Water,1
 Node,112,NODE 121,Water,1
 Node,113,NODE 112,Water,4
 Node,114,NODE 114,Water,2
 Node,115,PLANT LOOP 1 DEMAND INLET PIPE NODE,Water,1
 Node,116,NODE 116,Water,2
 Node,117,NODE 122,Water,1
 Node,118,NODE 125,Water,1
 Node,119,NODE 126,Water,1
 Node,120,NODE 130,Water,1
 Node,121,NODE 131,Water,1
 Node,122,NODE 135,Water,1
 Node,123,NODE 136,Water,1
 Node,124,NODE 140,Water,1
 Node,125,NODE 141,Water,1
 Node,126,NODE 145,Water,1
 Node,127,NODE 146,Water,1
 Node,128,NODE 150,Water,1
 Node,129,NODE 151,Water,1
 Node,130,NODE 155,Water,1
 Node,131,NODE 156,Water,1
 Node,132,NODE 160,Water,1
 Node,133,NODE 161,Water,1
 Node,134,NODE 165,Water,1
 Node,135,NODE 166,Water,1
 Node,136,NODE 170,Water,1
 Node,137,NODE 171,Water,1
 Node,138,NODE 175,Water,1
 Node,139,NODE 176,Water,1
 Node,140,NODE 180,Water,1
 Node,141,NODE 181,Water,1
 Node,142,NODE 185,Water,1
 Node,143,NODE 186,Water,1
 Node,144,NODE 190,Water,1
 Node,145,NODE 191,Water,1
 Node,146,NODE 195,Water,1
 Node,147,NODE 196,Water,1
 Node,148,NODE 200,Water,1
 Node,149,NODE 201,Water,1
 Node,150,NODE 205,Water,1
 Node,151,NODE 206,Water,1
 Node,152,NODE 210,Water,1
 Node,153,NODE 211,Water,1
 Node,154,NODE 215,Water,1
 Node,155,NODE 216,Water,1
 Node,156,NODE 220,Water,1
 Node,157,NODE 221,Water,1
 Node,158,NODE 225,Water,1
 Node,159,NODE 226,Water,1
 Node,160,NODE 230,Water,1
 Node,161,NODE 231,Water,1
 Node,162,NODE 235,Water,1
 Node,163,NODE 236,Water,1
 Node,164,NODE 240,Water,1
 Node,165,NODE 241,Water,1
 Node,166,NODE 245,Water,1
 Node,167,NODE 246,Water,1
 Node,168,NODE 250,Water,1
 Node,169,NODE 251,Water,1
 Node,170,NODE 255,Water,1
 Node,171,NODE 256,Water,1
 Node,172,NODE 260,Water,1
 Node,173,NODE 261,Water,1
 Node,174,NODE 265,Water,1
 Node,175,NODE 266,Water,1
 Node,176,NODE 270,Water,1
 Node,177,NODE 271,Water,1
 Node,178,NODE 275,Water,1
 Node,179,NODE 276,Water,1
 Node,180,NODE 280,Water,1
 Node,181,NODE 281,Water,1
 Node,182,NODE 285,Water,1
 Node,183,NODE 286,Water,1
 Node,184,NODE 290,Water,1
 Node,185,NODE 291,Water,1
 Node,186,NODE 295,Water,1
 Node,187,NODE 296,Water,1
 Node,188,NODE 300,Water,1
 Node,189,NODE 301,Water,1
 Node,190,NODE 305,Water,1
 Node,191,NODE 306,Water,1
 Node,192,NODE 310,Water,1
 Node,193,NODE 311,Water,1
 Node,194,NODE 315,Water,1
 Node,195,NODE 316,Water,1
 Node,196,NODE 320,Water,1
 Node,197,NODE 321,Water,1
 Node,198,NODE 325,Water,1
 Node,199,NODE 326,Water,1
 Node,200,NODE 330,Water,1
 Node,201,NODE 331,Water,1
 Node,202,NODE 335,Water,1
 Node,203,NODE 336,Water,1
 Node,204,NODE 340,Water,1
 Node,205,NODE 341,Water,1
 Node,206,NODE 345,Water,1
 Node,207,NODE 346,Water,1
 Node,208,NODE 350,Water,1
 Node,209,NODE 351,Water,1
 Node,210,NODE 355,Water,1
 Node,211,NODE 356,Water,1
 Node,212,NODE 360,Water,1
 Node,213,NODE 361,Water,1
 Node,214,NODE 365,Water,1
 Node,215,NODE 366,Water,1
 Node,216,NODE 370,Water,1
 Node,217,NODE 371,Water,1
 Node,218,NODE 375,Water,1
 Node,219,NODE 376,Water,1
 Node,220,NODE 380,Water,1
 Node,221,NODE 381,Water,1
 Node,222,NODE 385,Water,1
 Node,223,NODE 386,Water,1
 Node,224,NODE 390,Water,1
 Node,225,NODE 391,Water,1
 Node,226,NODE 395,Water,1
 Node,227,NODE 396,Water,1
 Node,228,NODE 400,Water,1
 Node,229,NODE 401,Water,1
 Node,230,NODE 405,Water,1
 Node,231,NODE 406,Water,1
 Node,232,NODE 410,Water,1
 Node,233,NODE 411,Water,1
 Node,234,NODE 415,Water,1
 Node,235,NODE 416,Water,1
 Node,236,NODE 420,Water,1
 Node,237,NODE 421,Water,1
 Node,238,NODE 425,Water,1
 Node,239,NODE 426,Water,1
 Node,240,NODE 430,Water,1
 Node,241,NODE 431,Water,1
 Node,242,NODE 435,Water,1
 Node,243,NODE 436,Water,1
 Node,244,NODE 440,Water,1
 Node,245,NODE 441,Water,1
 Node,246,NODE 445,Water,1
 Node,247,NODE 446,Water,1
 Node,248,NODE 450,Water,1
 Node,249,NODE 451,Water,1
 Node,250,NODE 455,Water,1
 Node,251,NODE 456,Water,1
 Node,252,NODE 460,Water,1
 Node,253,NODE 461,Water,1
 Node,254,NODE 465,Water,1
 Node,255,NODE 466,Water,1
 Node,256,NODE 470,Water,1
 Node,257,NODE 471,Water,1
 Node,258,NODE 475,Water,1
 Node,259,NODE 476,Water,1
 Node,260,NODE 480,Water,1
 Node,261,NODE 481,Water,1
 Node,262,NODE 485,Water,1
 Node,263,NODE 486,Water,1
 Node,264,NODE 490,Water,1
 Node,265,NODE 491,Water,1
 Node,266,NODE 495,Water,1
 Node,267,NODE 496,Water,1
 Node,268,NODE 500,Water,1
 Node,269,NODE 501,Water,1
 Node,270,NODE 505,Water,1
 Node,271,NODE 506,Water,1
 Node,272,NODE 510,Water,1
 Node,273,NODE 511,Water,1
 Node,274,NODE 515,Water,1
 Node,275,NODE 516,Water,1
 Node,276,NODE 520,Water,1
 Node,277,NODE 521,Water,1
 Node,278,NODE 525,Water,1
 Node,279,NODE 526,Water,1
 Node,280,NODE 530,Water,1
 Node,281,NODE 531,Water,1
 Node,282,NODE 535,Water,1
 Node,283,NODE 536,Water,1
 Node,284,NODE 540,Water,1
 Node,285,NODE 541,Water,1
 Node,286,NODE 545,Water,1
 Node,287,NODE 546,Water,1
 Node,288,NODE 550,Water,1
 Node,289,NODE 551,Water,1
 Node,290,NODE 555,Water,1
 Node,291,NODE 556,Water,1
 Node,292,NODE 560,Water,1
 Node,293,NODE 561,Water,1
 Node,294,NODE 565,Water,1
 Node,295,NODE 566,Water,1
 Node,296,NODE 570,Water,1
 Node,297,NODE 571,Water,1
 Node,298,NODE 575,Water,1
 Node,299,NODE 576,Water,1
 Node,300,NODE 580,Water,1
 Node,301,NODE 581,Water,1
 Node,302,NODE 585,Water,1
 Node,303,NODE 586,Water,1
 Node,304,NODE 590,Water,1
 Node,305,NODE 591,Water,1
 Node,306,NODE 595,Water,1
 Node,307,NODE 596,Water,1
 Node,308,NODE 600,Water,1
 Node,309,NODE 601,Water,1
 Node,310,NODE 605,Water,1
 Node,311,NODE 606,Water,1
 Node,312,NODE 610,Water,1
 Node,313,NODE 611,Water,1
 Node,314,NODE 615,Water,1
 Node,315,NODE 616,Water,1
 Node,316,NODE 620,Water,1
 Node,317,NODE 621,Water,1
 Node,318,PLANT LOOP 1 DEMAND BYPASS PIPE INLET NODE,Water,1
 Node,319,PLANT LOOP 1 DEMAND BYPASS PIPE OUTLET NODE,Water,1
 Node,320,PLANT LOOP 1 DEMAND OUTLET PIPE NODE,Water,1
 Node,321,NODE 115,Water,2
 Node,322,NODE 106,Air,2
 Node,323,NODE 95,Air,0
 Node,324,NODE 258,Air,1
 Node,325,NODE 24,Air,0
 Node,326,NODE 493,Air,1
 Node,327,NODE 99,Air,0
 Node,328,NODE 613,Air,1
 Node,329,NODE 50,Air,0
 Node,330,NODE 318,Air,1
 Node,331,NODE 4,Air,0
 Node,332,NODE 173,Air,1
 Node,333,NODE 94,Air,0
 Node,334,NODE 408,Air,1
 Node,335,NODE 65,Air,0
 Node,336,NODE 593,Air,1
 Node,337,NODE 32,Air,0
 Node,338,NODE 238,Air,1
 Node,339,NODE 20,Air,0
 Node,340,NODE 563,Air,1
 Node,341,NODE 51,Air,0
 Node,342,NODE 223,Air,1
 Node,343,NODE 58,Air,0
 Node,344,NODE 618,Air,1
 Node,345,NODE 41,Air,0
 Node,346,NODE 128,Air,1
 Node,347,NODE 38,Air,0
 Node,348,NODE 598,Air,1
 Node,349,NODE 37,Air,0
 Node,350,NODE 273,Air,1
 Node,351,NODE 39,Air,0
 Node,352,NODE 578,Air,1
 Node,353,NODE 92,Air,0
 Node,354,NODE 603,Air,1
 Node,355,NODE 56,Air,0
 Node,356,NODE 368,Air,1
 Node,357,NODE 59,Air,0
 Node,358,NODE 543,Air,1
 Node,359,NODE 76,Air,0
 Node,360,NODE 308,Air,1
 Node,361,NODE 77,Air,0
 Node,362,NODE 338,Air,1
 Node,363,NODE 93,Air,0
 Node,364,NODE 558,Air,1
 Node,365,NODE 25,Air,0
 Node,366,NODE 138,Air,1
 Node,367,NODE 35,Air,0
 Node,368,NODE 213,Air,1
 Node,369,NODE 66,Air,0
 Node,370,NODE 423,Air,1
 Node,371,NODE 79,Air,0
 Node,372,NODE 538,Air,1
 Node,373,NODE 34,Air,0
 Node,374,NODE 363,Air,1
 Node,375,NODE 1,Air,0
 Node,376,NODE 283,Air,1
 Node,377,NODE 73,Air,0
 Node,378,NODE 608,Air,1
 Node,379,NODE 55,Air,0
 Node,380,NODE 458,Air,1
 Node,381,NODE 9,Air,0
 Node,382,NODE 523,Air,1
 Node,383,NODE 90,Air,0
 Node,384,NODE 448,Air,1
 Node,385,NODE 71,Air,0
 Node,386,NODE 553,Air,1
 Node,387,NODE 86,Air,0
 Node,388,NODE 303,Air,1
 Node,389,NODE 30,Air,0
 Node,390,NODE 193,Air,1
 Node,391,NODE 8,Air,0
 Node,392,NODE 298,Air,1
 Node,393,NODE 45,Air,0
 Node,394,NODE 253,Air,1
 Node,395,NODE 40,Air,0
 Node,396,NODE 248,Air,1
 Node,397,NODE 46,Air,0
 Node,398,NODE 348,Air,1
 Node,399,NODE 62,Air,0
 Node,400,NODE 413,Air,1
 Node,401,NODE 18,Air,0
 Node,402,NODE 518,Air,1
 Node,403,NODE 57,Air,0
 Node,404,NODE 153,Air,1
 Node,405,NODE 98,Air,0
 Node,406,NODE 313,Air,1
 Node,407,NODE 48,Air,0
 Node,408,NODE 358,Air,1
 Node,409,NODE 21,Air,0
 Node,410,NODE 268,Air,1
 Node,411,NODE 7,Air,0
 Node,412,NODE 548,Air,1
 Node,413,NODE 85,Air,0
 Node,414,NODE 503,Air,1
 Node,415,NODE 60,Air,0
 Node,416,NODE 203,Air,1
 Node,417,NODE 43,Air,0
 Node,418,NODE 433,Air,1
 Node,419,NODE 19,Air,0
 Node,420,NODE 168,Air,1
 Node,421,NODE 89,Air,0
 Node,422,NODE 243,Air,1
 Node,423,NODE 53,Air,0
 Node,424,NODE 508,Air,1
 Node,425,NODE 80,Air,0
 Node,426,NODE 568,Air,1
 Node,427,NODE 78,Air,0
 Node,428,NODE 453,Air,1
 Node,429,NODE 69,Air,0
 Node,430,NODE 288,Air,1
 Node,431,NODE 28,Air,0
 Node,432,NODE 343,Air,1
 Node,433,NODE 10,Air,0
 Node,434,NODE 148,Air,1
 Node,435,NODE 5,Air,0
 Node,436,NODE 158,Air,1
 Node,437,NODE 27,Air,0
 Node,438,NODE 428,Air,1
 Node,439,NODE 81,Air,0
 Node,440,NODE 373,Air,1
 Node,441,NODE 68,Air,0
 Node,442,NODE 443,Air,1
 Node,443,NODE 67,Air,0
 Node,444,NODE 483,Air,1
 Node,445,NODE 61,Air,0
 Node,446,NODE 463,Air,1
 Node,447,NODE 100,Air,0
 Node,448,NODE 533,Air,1
 Node,449,NODE 91,Air,0
 Node,450,NODE 123,Air,1
 Node,451,NODE 75,Air,0
 Node,452,NODE 143,Air,1
 Node,453,NODE 36,Air,0
 Node,454,NODE 133,Air,1
 Node,455,NODE 15,Air,0
 Node,456,NODE 183,Air,1
 Node,457,NODE 88,Air,0
 Node,458,NODE 293,Air,1
 Node,459,NODE 16,Air,0
 Node,460,NODE 333,Air,1
 Node,461,NODE 11,Air,0
 Node,462,NODE 498,Air,1
 Node,463,NODE 44,Air,0
 Node,464,NODE 583,Air,1
 Node,465,NODE 70,Air,0
 Node,466,NODE 323,Air,1
 Node,467,NODE 97,Air,0
 Node,468,NODE 588,Air,1
 Node,469,NODE 84,Air,0
 Node,470,NODE 388,Air,1
 Node,471,NODE 14,Air,0
 Node,472,NODE 488,Air,1
 Node,473,NODE 12,Air,0
 Node,474,NODE 208,Air,1
 Node,475,NODE 83,Air,0
 Node,476,NODE 233,Air,1
 Node,477,NODE 52,Air,0
 Node,478,NODE 478,Air,1
 Node,479,NODE 33,Air,0
 Node,480,NODE 278,Air,1
 Node,481,NODE 82,Air,0
 Node,482,NODE 418,Air,1
 Node,483,NODE 3,Air,0
 Node,484,NODE 468,Air,1
 Node,485,NODE 49,Air,0
 Node,486,NODE 528,Air,1
 Node,487,NODE 13,Air,0
 Node,488,NODE 263,Air,1
 Node,489,NODE 42,Air,0
 Node,490,NODE 353,Air,1
 Node,491,NODE 47,Air,0
 Node,492,NODE 328,Air,1
 Node,493,NODE 64,Air,0
 Node,494,NODE 473,Air,1
 Node,495,NODE 54,Air,0
 Node,496,NODE 188,Air,1
 Node,497,NODE 74,Air,0
 Node,498,NODE 218,Air,1
 Node,499,NODE 6,Air,0
 Node,500,NODE 163,Air,1
 Node,501,NODE 23,Air,0
 Node,502,NODE 573,Air,1
 Node,503,NODE 63,Air,0
 Node,504,NODE 398,Air,1
 Node,505,NODE 29,Air,0
 Node,506,NODE 383,Air,1
 Node,507,NODE 96,Air,0
 Node,508,NODE 513,Air,1
 Node,509,NODE 26,Air,0
 Node,510,NODE 403,Air,1
 Node,511,NODE 17,Air,0
 Node,512,NODE 198,Air,1
 Node,513,NODE 72,Air,0
 Node,514,NODE 393,Air,1
 Node,515,NODE 31,Air,0
 Node,516,NODE 178,Air,1
 Node,517,NODE 22,Air,0
 Node,518,NODE 228,Air,1
 Node,519,NODE 87,Air,0
 Node,520,NODE 378,Air,1
 Node,521,NODE 2,Air,0
 Node,522,NODE 438,Air,1
 Node,523,NODE 103,Air,2
 Node,524,NODE 104,Air,2
 Node,525,NODE 124,Air,1
 Node,526,NODE 129,Air,1
 Node,527,NODE 134,Air,1
 Node,528,NODE 139,Air,1
 Node,529,NODE 144,Air,1
 Node,530,NODE 149,Air,1
 Node,531,NODE 154,Air,1
 Node,532,NODE 159,Air,1
 Node,533,NODE 164,Air,1
 Node,534,NODE 169,Air,1
 Node,535,NODE 174,Air,1
 Node,536,NODE 179,Air,1
 Node,537,NODE 184,Air,1
 Node,538,NODE 189,Air,1
 Node,539,NODE 194,Air,1
 Node,540,NODE 199,Air,1
 Node,541,NODE 204,Air,1
 Node,542,NODE 209,Air,1
 Node,543,NODE 214,Air,1
 Node,544,NODE 219,Air,1
 Node,545,NODE 224,Air,1
 Node,546,NODE 229,Air,1
 Node,547,NODE 234,Air,1
 Node,548,NODE 239,Air,1
 Node,549,NODE 244,Air,1
 Node,550,NODE 249,Air,1
 Node,551,NODE 254,Air,1
 Node,552,NODE 259,Air,1
 Node,553,NODE 264,Air,1
 Node,554,NODE 269,Air,1
 Node,555,NODE 274,Air,1
 Node,556,NODE 279,Air,1
 Node,557,NODE 284,Air,1
 Node,558,NODE 289,Air,1
 Node,559,NODE 294,Air,1
 Node,560,NODE 299,Air,1
 Node,561,NODE 304,Air,1
 Node,562,NODE 309,Air,1
 Node,563,NODE 314,Air,1
 Node,564,NODE 319,Air,1
 Node,565,NODE 324,Air,1
 Node,566,NODE 329,Air,1
 Node,567,NODE 334,Air,1
 Node,568,NODE 339,Air,1
 Node,569,NODE 344,Air,1
 Node,570,NODE 349,Air,1
 Node,571,NODE 354,Air,1
 Node,572,NODE 359,Air,1
 Node,573,NODE 364,Air,1
 Node,574,NODE 369,Air,1
 Node,575,NODE 374,Air,1
 Node,576,NODE 379,Air,1
 Node,577,NODE 384,Air,1
 Node,578,NODE 389,Air,1
 Node,579,NODE 394,Air,1
 Node,580,NODE 399,Air,1
 Node,581,NODE 404,Air,1
 Node,582,NODE 409,Air,1
 Node,583,NODE 414,Air,1
 Node,584,NODE 419,Air,1
 Node,585,NODE 424,Air,1
 Node,586,NODE 429,Air,1
 Node,587,NODE 434,Air,1
 Node,588,NODE 439,Air,1
 Node,589,NODE 444,Air,1
 Node,590,NODE 449,Air,1
 Node,591,NODE 454,Air,1
 Node,592,NODE 459,Air,1
 Node,593,NODE 464,Air,1
 Node,594,NODE 469,Air,1
 Node,595,NODE 474,Air,1
 Node,596,NODE 479,Air,1
 Node,597,NODE 484,Air,1
 Node,598,NODE 489,Air,1
 Node,599,NODE 494,Air,1
 Node,600,NODE 499,Air,1
 Node,601,NODE 504,Air,1
 Node,602,NODE 509,Air,1
 Node,603,NODE 514,Air,1
 Node,604,NODE 519,Air,1
 Node,605,NODE 524,Air,1
 Node,606,NODE 529,Air,1
 Node,607,NODE 534,Air,1
 Node,608,NODE 539,Air,1
 Node,609,NODE 544,Air,1
 Node,610,NODE 549,Air,1
 Node,611,NODE 554,Air,1
 Node,612,NODE 559,Air,1
 Node,613,NODE 564,Air,1
 Node,614,NODE 569,Air,1
 Node,615,NODE 574,Air,1
 Node,616,NODE 579,Air,1
 Node,617,NODE 584,Air,1
 Node,618,NODE 589,Air,1
 Node,619,NODE 594,Air,1
 Node,620,NODE 599,Air,1
 Node,621,NODE 604,Air,1
 Node,622,NODE 609,Air,1
 Node,623,NODE 614,Air,1
 Node,624,NODE 619,Air,1
 Node,625,AIR TERMINAL SINGLE DUCT VAV REHEAT 2 DAMPER OUTLET,Air,1
 Node,626,AIR TERMINAL SINGLE DUCT VAV REHEAT 3 DAMPER OUTLET,Air,1
 Node,627,AIR TERMINAL SINGLE DUCT VAV REHEAT 4 DAMPER OUTLET,Air,1
 Node,628,AIR TERMINAL SINGLE DUCT VAV REHEAT 5 DAMPER OUTLET,Air,1
 Node,629,AIR TERMINAL SINGLE DUCT VAV REHEAT 6 DAMPER OUTLET,Air,1
 Node,630,AIR TERMINAL SINGLE DUCT VAV REHEAT 7 DAMPER OUTLET,Air,1
 Node,631,AIR TERMINAL SINGLE DUCT VAV REHEAT 8 DAMPER OUTLET,Air,1
 Node,632,AIR TERMINAL SINGLE DUCT VAV REHEAT 9 DAMPER OUTLET,Air,1
 Node,633,AIR TERMINAL SINGLE DUCT VAV REHEAT 10 DAMPER OUTLET,Air,1
 Node,634,AIR TERMINAL SINGLE DUCT VAV REHEAT 11 DAMPER OUTLET,Air,1
 Node,635,AIR TERMINAL SINGLE DUCT VAV REHEAT 12 DAMPER OUTLET,Air,1
 Node,636,AIR TERMINAL SINGLE DUCT VAV REHEAT 13 DAMPER OUTLET,Air,1
 Node,637,AIR TERMINAL SINGLE DUCT VAV REHEAT 14 DAMPER OUTLET,Air,1
 Node,638,AIR TERMINAL SINGLE DUCT VAV REHEAT 15 DAMPER OUTLET,Air,1
 Node,639,AIR TERMINAL SINGLE DUCT VAV REHEAT 16 DAMPER OUTLET,Air,1
 Node,640,AIR TERMINAL SINGLE DUCT VAV REHEAT 17 DAMPER OUTLET,Air,1
 Node,641,AIR TERMINAL SINGLE DUCT VAV REHEAT 18 DAMPER OUTLET,Air,1
 Node,642,AIR TERMINAL SINGLE DUCT VAV REHEAT 19 DAMPER OUTLET,Air,1
 Node,643,AIR TERMINAL SINGLE DUCT VAV REHEAT 20 DAMPER OUTLET,Air,1
 Node,644,AIR TERMINAL SINGLE DUCT VAV REHEAT 21 DAMPER OUTLET,Air,1
 Node,645,AIR TERMINAL SINGLE DUCT VAV REHEAT 22 DAMPER OUTLET,Air,1
 Node,646,AIR TERMINAL SINGLE DUCT VAV REHEAT 23 DAMPER OUTLET,Air,1
 Node,647,AIR TERMINAL SINGLE DUCT VAV REHEAT 24 DAMPER OUTLET,Air,1
 Node,648,AIR TERMINAL SINGLE DUCT VAV REHEAT 25 DAMPER OUTLET,Air,1
 Node,649,AIR TERMINAL SINGLE DUCT VAV REHEAT 26 DAMPER OUTLET,Air,1
 Node,650,AIR TERMINAL SINGLE DUCT VAV REHEAT 27 DAMPER OUTLET,Air,1
 Node,651,AIR TERMINAL SINGLE DUCT VAV REHEAT 28 DAMPER OUTLET,Air,1
 Node,652,AIR TERMINAL SINGLE DUCT VAV REHEAT 29 DAMPER OUTLET,Air,1
 Node,653,AIR TERMINAL SINGLE DUCT VAV REHEAT 30 DAMPER OUTLET,Air,1
 Node,654,AIR TERMINAL SINGLE DUCT VAV REHEAT 31 DAMPER OUTLET,Air,1
 Node,655,AIR TERMINAL SINGLE DUCT VAV REHEAT 32 DAMPER OUTLET,Air,1
 Node,656,AIR TERMINAL SINGLE DUCT VAV REHEAT 33 DAMPER OUTLET,Air,1
 Node,657,AIR TERMINAL SINGLE DUCT VAV REHEAT 34 DAMPER OUTLET,Air,1
 Node,658,AIR TERMINAL SINGLE DUCT VAV REHEAT 35 DAMPER OUTLET,Air,1
 Node,659,AIR TERMINAL SINGLE DUCT VAV REHEAT 36 DAMPER OUTLET,Air,1
 Node,660,AIR TERMINAL SINGLE DUCT VAV REHEAT 37 DAMPER OUTLET,Air,1
 Node,661,AIR TERMINAL SINGLE DUCT VAV REHEAT 38 DAMPER OUTLET,Air,1
 Node,662,AIR TERMINAL SINGLE DUCT VAV REHEAT 39 DAMPER OUTLET,Air,1
 Node,663,AIR TERMINAL SINGLE DUCT VAV REHEAT 40 DAMPER OUTLET,Air,1
 Node,664,AIR TERMINAL SINGLE DUCT VAV REHEAT 41 DAMPER OUTLET,Air,1
 Node,665,AIR TERMINAL SINGLE DUCT VAV REHEAT 42 DAMPER OUTLET,Air,1
 Node,666,AIR TERMINAL SINGLE DUCT VAV REHEAT 43 DAMPER OUTLET,Air,1
 Node,667,AIR TERMINAL SINGLE DUCT VAV REHEAT 44 DAMPER OUTLET,Air,1
 Node,668,AIR TERMINAL SINGLE DUCT VAV REHEAT 45 DAMPER OUTLET,Air,1
 Node,669,AIR TERMINAL SINGLE DUCT VAV REHEAT 46 DAMPER OUTLET,Air,1
 Node,670,AIR TERMINAL SINGLE DUCT VAV REHEAT 47 DAMPER OUTLET,Air,1
 Node,671,AIR TERMINAL SINGLE DUCT VAV REHEAT 48 DAMPER OUTLET,Air,1
 Node,672,AIR TERMINAL SINGLE DUCT VAV REHEAT 49 DAMPER OUTLET,Air,1
 Node,673,AIR TERMINAL SINGLE DUCT VAV REHEAT 50 DAMPER OUTLET,Air,1
 Node,674,AIR TERMINAL SINGLE DUCT VAV REHEAT 51 DAMPER OUTLET,Air,1
 Node,675,AIR TERMINAL SINGLE DUCT VAV REHEAT 52 DAMPER OUTLET,Air,1
 Node,676,AIR TERMINAL SINGLE DUCT VAV REHEAT 53 DAMPER OUTLET,Air,1
 Node,677,AIR TERMINAL SINGLE DUCT VAV REHEAT 54 DAMPER OUTLET,Air,1
 Node,678,AIR TERMINAL SINGLE DUCT VAV REHEAT 55 DAMPER OUTLET,Air,1
 Node,679,AIR TERMINAL SINGLE DUCT VAV REHEAT 56 DAMPER OUTLET,Air,1
 Node,680,AIR TERMINAL SINGLE DUCT VAV REHEAT 57 DAMPER OUTLET,Air,1
 Node,681,AIR TERMINAL SINGLE DUCT VAV REHEAT 58 DAMPER OUTLET,Air,1
 Node,682,AIR TERMINAL SINGLE DUCT VAV REHEAT 59 DAMPER OUTLET,Air,1
 Node,683,AIR TERMINAL SINGLE DUCT VAV REHEAT 60 DAMPER OUTLET,Air,1
 Node,684,AIR TERMINAL SINGLE DUCT VAV REHEAT 61 DAMPER OUTLET,Air,1
 Node,685,AIR TERMINAL SINGLE DUCT VAV REHEAT 62 DAMPER OUTLET,Air,1
 Node,686,AIR TERMINAL SINGLE DUCT VAV REHEAT 63 DAMPER OUTLET,Air,1
 Node,687,AIR TERMINAL SINGLE DUCT VAV REHEAT 64 DAMPER OUTLET,Air,1
 Node,688,AIR TERMINAL SINGLE DUCT VAV REHEAT 65 DAMPER OUTLET,Air,1
 Node,689,AIR TERMINAL SINGLE DUCT VAV REHEAT 66 DAMPER OUTLET,Air,1
 Node,690,AIR TERMINAL SINGLE DUCT VAV REHEAT 67 DAMPER OUTLET,Air,1
 Node,691,AIR TERMINAL SINGLE DUCT VAV REHEAT 68 DAMPER OUTLET,Air,1
 Node,692,AIR TERMINAL SINGLE DUCT VAV REHEAT 69 DAMPER OUTLET,Air,1
 Node,693,AIR TERMINAL SINGLE DUCT VAV REHEAT 70 DAMPER OUTLET,Air,1
 Node,694,AIR TERMINAL SINGLE DUCT VAV REHEAT 71 DAMPER OUTLET,Air,1
 Node,695,AIR TERMINAL SINGLE DUCT VAV REHEAT 72 DAMPER OUTLET,Air,1
 Node,696,AIR TERMINAL SINGLE DUCT VAV REHEAT 73 DAMPER OUTLET,Air,1
 Node,697,AIR TERMINAL SINGLE DUCT VAV REHEAT 74 DAMPER OUTLET,Air,1
 Node,698,AIR TERMINAL SINGLE DUCT VAV REHEAT 75 DAMPER OUTLET,Air,1
 Node,699,AIR TERMINAL SINGLE DUCT VAV REHEAT 76 DAMPER OUTLET,Air,1
 Node,700,AIR TERMINAL SINGLE DUCT VAV REHEAT 77 DAMPER OUTLET,Air,1
 Node,701,AIR TERMINAL SINGLE DUCT VAV REHEAT 78 DAMPER OUTLET,Air,1
 Node,702,AIR TERMINAL SINGLE DUCT VAV REHEAT 79 DAMPER OUTLET,Air,1
 Node,703,AIR TERMINAL SINGLE DUCT VAV REHEAT 80 DAMPER OUTLET,Air,1
 Node,704,AIR TERMINAL SINGLE DUCT VAV REHEAT 81 DAMPER OUTLET,Air,1
 Node,705,AIR TERMINAL SINGLE DUCT VAV REHEAT 82 DAMPER OUTLET,Air,1
 Node,706,AIR TERMINAL SINGLE DUCT VAV REHEAT 83 DAMPER OUTLET,Air,1
 Node,707,AIR TERMINAL SINGLE DUCT VAV REHEAT 84 DAMPER OUTLET,Air,1
 Node,708,AIR TERMINAL SINGLE DUCT VAV REHEAT 85 DAMPER OUTLET,Air,1
 Node,709,AIR TERMINAL SINGLE DUCT VAV REHEAT 86 DAMPER OUTLET,Air,1
 Node,710,AIR TERMINAL SINGLE DUCT VAV REHEAT 87 DAMPER OUTLET,Air,1
 Node,711,AIR TERMINAL SINGLE DUCT VAV REHEAT 88 DAMPER OUTLET,Air,1
 Node,712,AIR TERMINAL SINGLE DUCT VAV REHEAT 89 DAMPER OUTLET,Air,1
 Node,713,AIR TERMINAL SINGLE DUCT VAV REHEAT 90 DAMPER OUTLET,Air,1
 Node,714,AIR TERMINAL SINGLE DUCT VAV REHEAT 91 DAMPER OUTLET,Air,1
 Node,715,AIR TERMINAL SINGLE DUCT VAV REHEAT 92 DAMPER OUTLET,Air,1
 Node,716,AIR TERMINAL SINGLE DUCT VAV REHEAT 93 DAMPER OUTLET,Air,1
 Node,717,AIR TERMINAL SINGLE DUCT VAV REHEAT 94 DAMPER OUTLET,Air,1
 Node,718,AIR TERMINAL SINGLE DUCT VAV REHEAT 95 DAMPER OUTLET,Air,1
 Node,719,AIR TERMINAL SINGLE DUCT VAV REHEAT 96 DAMPER OUTLET,Air,1
 Node,720,AIR TERMINAL SINGLE DUCT VAV REHEAT 97 DAMPER OUTLET,Air,1
 Node,721,AIR TERMINAL SINGLE DUCT VAV REHEAT 98 DAMPER OUTLET,Air,1
 Node,722,AIR TERMINAL SINGLE DUCT VAV REHEAT 99 DAMPER OUTLET,Air,1
 Node,723,AIR TERMINAL SINGLE DUCT VAV REHEAT 100 DAMPER OUTLET,Air,1
 Node,724,AIR TERMINAL SINGLE DUCT VAV REHEAT 101 DAMPER OUTLET,Air,1
 Node,725,NODE 107,Air,1
! ===============================================================
! Suspicious nodes have 0 references.  It is normal for some nodes, however.
! Listing nodes with 0 references (culled from previous list):
! <Suspicious Node>,<NodeNumber>,<Node Name>,<Node Fluid Type>,<# Times Node Referenced After Definition>
 Suspicious Node,323,NODE 95,Air,0
 Suspicious Node,325,NODE 24,Air,0
 Suspicious Node,327,NODE 99,Air,0
 Suspicious Node,329,NODE 50,Air,0
 Suspicious Node,331,NODE 4,Air,0
 Suspicious Node,333,NODE 94,Air,0
 Suspicious Node,335,NODE 65,Air,0
 Suspicious Node,337,NODE 32,Air,0
 Suspicious Node,339,NODE 20,Air,0
 Suspicious Node,341,NODE 51,Air,0
 Suspicious Node,343,NODE 58,Air,0
 Suspicious Node,345,NODE 41,Air,0
 Suspicious Node,347,NODE 38,Air,0
 Suspicious Node,349,NODE 37,Air,0
 Suspicious Node,351,NODE 39,Air,0
 Suspicious Node,353,NODE 92,Air,0
 Suspicious Node,355,NODE 56,Air,0
 Suspicious Node,357,NODE 59,Air,0
 Suspicious Node,359,NODE 76,Air,0
 Suspicious Node,361,NODE 77,Air,0
 Suspicious Node,363,NODE 93,Air,0
 Suspicious Node,365,NODE 25,Air,0
 Suspicious Node,367,NODE 35,Air,0
 Suspicious Node,369,NODE 66,Air,0
 Suspicious Node,371,NODE 79,Air,0
 Suspicious Node,373,NODE 34,Air,0
 Suspicious Node,375,NODE 1,Air,0
 Suspicious Node,377,NODE 73,Air,0
 Suspicious Node,379,NODE 55,Air,0
 Suspicious Node,381,NODE 9,Air,0
 Suspicious Node,383,NODE 90,Air,0
 Suspicious Node,385,NODE 71,Air,0
 Suspicious Node,387,NODE 86,Air,0
 Suspicious Node,389,NODE 30,Air,0
 Suspicious Node,391,NODE 8,Air,0
 Suspicious Node,393,NODE 45,Air,0
 Suspicious Node,395,NODE 40,Air,0
 Suspicious Node,397,NODE 46,Air,0
 Suspicious Node,399,NODE 62,Air,0
 Suspicious Node,401,NODE 18,Air,0
 Suspicious Node,403,NODE 57,Air,0
 Suspicious Node,405,NODE 98,Air,0
 Suspicious Node,407,NODE 48,Air,0
 Suspicious Node,409,NODE 21,Air,0
 Suspicious Node,411,NODE 7,Air,0
 Suspicious Node,413,NODE 85,Air,0
 Suspicious Node,415,NODE 60,Air,0
 Suspicious Node,417,NODE 43,Air,0
 Suspicious Node,419,NODE 19,Air,0
 Suspicious Node,421,NODE 89,Air,0
 Suspicious Node,423,NODE 53,Air,0
 Suspicious Node,425,NODE 80,Air,0
 Suspicious Node,427,NODE 78,Air,0
 Suspicious Node,429,NODE 69,Air,0
 Suspicious Node,431,NODE 28,Air,0
 Suspicious Node,433,NODE 10,Air,0
 Suspicious Node,435,NODE 5,Air,0
 Suspicious Node,437,NODE 27,Air,0
 Suspicious Node,439,NODE 81,Air,0
 Suspicious Node,441,NODE 68,Air,0
 Suspicious Node,443,NODE 67,Air,0
 Suspicious Node,445,NODE 61,Air,0
 Suspicious Node,447,NODE 100,Air,0
 Suspicious Node,449,NODE 91,Air,0
 Suspicious Node,451,NODE 75,Air,0
 Suspicious Node,453,NODE 36,Air,0
 Suspicious Node,455,NODE 15,Air,0
 Suspicious Node,457,NODE 88,Air,0
 Suspicious Node,459,NODE 16,Air,0
 Suspicious Node,461,NODE 11,Air,0
 Suspicious Node,463,NODE 44,Air,0
 Suspicious Node,465,NODE 70,Air,0
 Suspicious Node,467,NODE 97,Air,0
 Suspicious Node,469,NODE 84,Air,0
 Suspicious Node,471,NODE 14,Air,0
 Suspicious Node,473,NODE 12,Air,0
 Suspicious Node,475,NODE 83,Air,0
 Suspicious Node,477,NODE 52,Air,0
 Suspicious Node,479,NODE 33,Air,0
 Suspicious Node,481,NODE 82,Air,0
 Suspicious Node,483,NODE 3,Air,0
 Suspicious Node,485,NODE 49,Air,0
 Suspicious Node,487,NODE 13,Air,0
 Suspicious Node,489,NODE 42,Air,0
 Suspicious Node,491,NODE 47,Air,0
 Suspicious Node,493,NODE 64,Air,0
 Suspicious Node,495,NODE 54,Air,0
 Suspicious Node,497,NODE 74,Air,0
 Suspicious Node,499,NODE 6,Air,0
 Suspicious Node,501,NODE 23,Air,0
 Suspicious Node,503,NODE 63,Air,0
 Suspicious Node,505,NODE 29,Air,0
 Suspicious Node,507,NODE 96,Air,0
 Suspicious Node,509,NODE 26,Air,0
 Suspicious Node,511,NODE 17,Air,0
 Suspicious Node,513,NODE 72,Air,0
 Suspicious Node,515,NODE 31,Air,0
 Suspicious Node,517,NODE 22,Air,0
 Suspicious Node,519,NODE 87,Air,0
 Suspicious Node,521,NODE 2,Air,0
! ===============================================================
! <#Branch Lists>,<Number of Branch Lists>
 #Branch Lists,3
! <Branch List>,<Branch List Count>,<Branch List Name>,<Loop Name>,<Loop Type>,<Number of Branches>
! <Branch>,<Branch Count>,<Branch Name>,<Loop Name>,<Loop Type>,<Branch Inlet Node Name>,<Branch Outlet Node Name>
 Branch List,1,BRANCHLIST {FFA76460-01E3-4B3F-B7CD-5F9918BD0538},AIR LOOP HVAC 1,Air,1
   Branch,1,BRANCH {F67D2460-D313-4DE6-B1C6-502E82235AC6},AIR LOOP HVAC 1,Air,NODE 101,NODE 102
 Branch List,2,PLANT LOOP 1 SUPPLY BRANCHES,PLANT LOOP 1,Plant Supply,4
   Branch,1,PLANT LOOP 1 SUPPLY INLET BRANCH,PLANT LOOP 1,Plant Supply,NODE 111,NODE 117
   Branch,2,PLANT LOOP 1 SUPPLY BRANCH 1,PLANT LOOP 1,Plant Supply,NODE 113,NODE 118
   Branch,3,PLANT LOOP 1 SUPPLY BRANCH 2,PLANT LOOP 1,Plant Supply,NODE 119,NODE 120
   Branch,4,PLANT LOOP 1 SUPPLY OUTLET BRANCH,PLANT LOOP 1,Plant Supply,NODE 121,NODE 112
 Branch List,3,PLANT LOOP 1 DEMAND BRANCHES,PLANT LOOP 1,Plant Demand,104
   Branch,1,PLANT LOOP 1 DEMAND INLET BRANCH,PLANT LOOP 1,Plant Demand,NODE 114,PLANT LOOP 1 DEMAND INLET PIPE NODE
   Branch,2,PLANT LOOP 1 DEMAND BRANCH 1,PLANT LOOP 1,Plant Demand,NODE 116,NODE 122
   Branch,3,PLANT LOOP 1 DEMAND BRANCH 2,PLANT LOOP 1,Plant Demand,NODE 125,NODE 126
   Branch,4,PLANT LOOP 1 DEMAND BRANCH 3,PLANT LOOP 1,Plant Demand,NODE 130,NODE 131
   Branch,5,PLANT LOOP 1 DEMAND BRANCH 4,PLANT LOOP 1,Plant Demand,NODE 135,NODE 136
   Branch,6,PLANT LOOP 1 DEMAND BRANCH 5,PLANT LOOP 1,Plant Demand,NODE 140,NODE 141
   Branch,7,PLANT LOOP 1 DEMAND BRANCH 6,PLANT LOOP 1,Plant Demand,NODE 145,NODE 146
   Branch,8,PLANT LOOP 1 DEMAND BRANCH 7,PLANT LOOP 1,Plant Demand,NODE 150,NODE 151
   Branch,9,PLANT LOOP 1 DEMAND BRANCH 8,PLANT LOOP 1,Plant Demand,NODE 155,NODE 156
   Branch,10,PLANT LOOP 1 DEMAND BRANCH 9,PLANT LOOP 1,Plant Demand,NODE 160,NODE 161
   Branch,11,PLANT LOOP 1 DEMAND BRANCH 10,PLANT LOOP 1,Plant Demand,NODE 165,NODE 166
   Branch,12,PLANT LOOP 1 DEMAND BRANCH 11,PLANT LOOP 1,Plant Demand,NODE 170,NODE 171
   Branch,13,PLANT LOOP 1 DEMAND BRANCH 12,PLANT LOOP 1,Plant Demand,NODE 175,NODE 176
   Branch,14,PLANT LOOP 1 DEMAND BRANCH 13,PLANT LOOP 1,Plant Demand,NODE 180,NODE 181
   Branch,15,PLANT LOOP 1 DEMAND BRANCH 14,PLANT LOOP 1,Plant Demand,NODE 185,NODE 186
   Branch,16,PLANT LOOP 1 DEMAND BRANCH 15,PLANT LOOP 1,Plant Demand,NODE 190,NODE 191
   Branch,17,PLANT LOOP 1 DEMAND BRANCH 16,PLANT LOOP 1,Plant Demand,NODE 195,NODE 196
   Branch,18,PLANT LOOP 1 DEMAND BRANCH 17,PLANT LOOP 1,Plant Demand,NODE 200,NODE 201
   Branch,19,PLANT LOOP 1 DEMAND BRANCH 18,PLANT LOOP 1,Plant Demand,NODE 205,NODE 206
   Branch,20,PLANT LOOP 1 DEMAND BRANCH 19,PLANT LOOP 1,Plant Demand,NODE 210,NODE 211
   Branch,21,PLANT LOOP 1 DEMAND BRANCH 20,PLANT LOOP 1,Plant Demand,NODE 215,NODE 216
   Branch,22,PLANT LOOP 1 DEMAND BRANCH 21,PLANT LOOP 1,Plant Demand,NODE 220,NODE 221
   Branch,23,PLANT LOOP 1 DEMAND BRANCH 22,PLANT LOOP 1,Plant Demand,NODE 225,NODE 226
   Branch,24,PLANT LOOP 1 DEMAND BRANCH 23,PLANT LOOP 1,Plant Demand,NODE 230,NODE 231
   Branch,25,PLANT LOOP 1 DEMAND BRANCH 24,PLANT LOOP 1,Plant Demand,NODE 235,NODE 236
   Branch,26,PLANT LOOP 1 DEMAND BRANCH 25,PLANT LOOP 1,Plant Demand,NODE 240,NODE 241
   Branch,27,PLANT LOOP 1 DEMAND BRANCH 26,PLANT LOOP 1,Plant Demand,NODE 245,NODE 246
   Branch,28,PLANT LOOP 1 DEMAND BRANCH 27,PLANT LOOP 1,Plant Demand,NODE 250,NODE 251
   Branch,29,PLANT LOOP 1 DEMAND BRANCH 28,PLANT LOOP 1,Plant Demand,NODE 255,NODE 256
   Branch,30,PLANT LOOP 1 DEMAND BRANCH 29,PLANT LOOP 1,Plant Demand,NODE 260,NODE 261
   Branch,31,PLANT LOOP 1 DEMAND BRANCH 30,PLANT LOOP 1,Plant Demand,NODE 265,NODE 266
   Branch,32,PLANT LOOP 1 DEMAND BRANCH 31,PLANT LOOP 1,Plant Demand,NODE 270,NODE 271
   Branch,33,PLANT LOOP 1 DEMAND BRANCH 32,PLANT LOOP 1,Plant Demand,NODE 275,NODE 276
   Branch,34,PLANT LOOP 1 DEMAND BRANCH 33,PLANT LOOP 1,Plant Demand,NODE 280,NODE 281
   Branch,35,PLANT LOOP 1 DEMAND BRANCH 34,PLANT LOOP 1,Plant Demand,NODE 285,NODE 286
   Branch,36,PLANT LOOP 1 DEMAND BRANCH 35,PLANT LOOP 1,Plant Demand,NODE 290,NODE 291
   Branch,37,PLANT LOOP 1 DEMAND BRANCH 36,PLANT LOOP 1,Plant Demand,NODE 295,NODE 296
   Branch,38,PLANT LOOP 1 DEMAND BRANCH 37,PLANT LOOP 1,Plant Demand,NODE 300,NODE 301
   Branch,39,PLANT LOOP 1 DEMAND BRANCH 38,PLANT LOOP 1,Plant Demand,NODE 305,NODE 306
   Branch,40,PLANT LOOP 1 DEMAND BRANCH 39,PLANT LOOP 1,Plant Demand,NODE 310,NODE 311
   Branch,41,PLANT LOOP 1 DEMAND BRANCH 40,PLANT LOOP 1,Plant Demand,NODE 315,NODE 316
   Branch,42,PLANT LOOP 1 DEMAND BRANCH 41,PLANT LOOP 1,Plant Demand,NODE 320,NODE 321
   Branch,43,PLANT LOOP 1 DEMAND BRANCH 42,PLANT LOOP 1,Plant Demand,NODE 325,NODE 326
   Branch,44,PLANT LOOP 1 DEMAND BRANCH 43,PLANT LOOP 1,Plant Demand,NODE 330,NODE 331
   Branch,45,PLANT LOOP 1 DEMAND BRANCH 44,PLANT LOOP 1,Plant Demand,NODE 335,NODE 336
   Branch,46,PLANT LOOP 1 DEMAND BRANCH 45,PLANT LOOP 1,Plant Demand,NODE 340,NODE 341
   Branch,47,PLANT LOOP 1 DEMAND BRANCH 46,PLANT LOOP 1,Plant Demand,NODE 345,NODE 346
   Branch,48,PLANT LOOP 1 DEMAND BRANCH 47,PLANT LOOP 1,Plant Demand,NODE 350,NODE 351
   Branch,49,PLANT LOOP 1 DEMAND BRANCH 48,PLANT LOOP 1,Plant Demand,NODE 355,NODE 356
   Branch,50,PLANT LOOP 1 DEMAND BRANCH 49,PLANT LOOP 1,Plant Demand,NODE 360,NODE 361
   Branch,51,PLANT LOOP 1 DEMAND BRANCH 50,PLANT LOOP 1,Plant Demand,NODE 365,NODE 366
   Branch,52,PLANT LOOP 1 DEMAND BRANCH 51,PLANT LOOP 1,Plant Demand,NODE 370,NODE 371
   Branch,53,PLANT LOOP 1 DEMAND BRANCH 52,PLANT LOOP 1,Plant Demand,NODE 375,NODE 376
   Branch,54,PLANT LOOP 1 DEMAND BRANCH 53,PLANT LOOP 1,Plant Demand,NODE 380,NODE 381
   Branch,55,PLANT LOOP 1 DEMAND BRANCH 54,PLANT LOOP 1,Plant Demand,NODE 385,NODE 386
   Branch,56,PLANT LOOP 1 DEMAND BRANCH 55,PLANT LOOP 1,Plant Demand,NODE 390,NODE 391
   Branch,57,PLANT LOOP 1 DEMAND BRANCH 56,PLANT LOOP 1,Plant Demand,NODE 395,NODE 396
   Branch,58,PLANT LOOP 1 DEMAND BRANCH 57,PLANT LOOP 1,Plant Demand,NODE 400,NODE 401
   Branch,59,PLANT LOOP 1 DEMAND BRANCH 58,PLANT LOOP 1,Plant Demand,NODE 405,NODE 406
   Branch,60,PLANT LOOP 1 DEMAND BRANCH 59,PLANT LOOP 1,Plant Demand,NODE 410,NODE 411
   Branch,61,PLANT LOOP 1 DEMAND BRANCH 60,PLANT LOOP 1,Plant Demand,NODE 415,NODE 416
   Branch,62,PLANT LOOP 1 DEMAND BRANCH 61,PLANT LOOP 1,Plant Demand,NODE 420,NODE 421
   Branch,63,PLANT LOOP 1 DEMAND BRANCH 62,PLANT LOOP 1,Plant Demand,NODE 425,NODE 426
   Branch,64,PLANT LOOP 1 DEMAND BRANCH 63,PLANT LOOP 1,Plant Demand,NODE 430,NODE 431
   Branch,65,PLANT LOOP 1 DEMAND BRANCH 64,PLANT LOOP 1,Plant Demand,NODE 435,NODE 436
   Branch,66,PLANT LOOP 1 DEMAND BRANCH 65,PLANT LOOP 1,Plant Demand,NODE 440,NODE 441
   Branch,67,PLANT LOOP 1 DEMAND BRANCH 66,PLANT LOOP 1,Plant Demand,NODE 445,NODE 446
   Branch,68,PLANT LOOP 1 DEMAND BRANCH 67,PLANT LOOP 1,Plant Demand,NODE 450,NODE 451
   Branch,69,PLANT LOOP 1 DEMAND BRANCH 68,PLANT LOOP 1,Plant Demand,NODE 455,NODE 456
   Branch,70,PLANT LOOP 1 DEMAND BRANCH 69,PLANT LOOP 1,Plant Demand,NODE 460,NODE 461
   Branch,71,PLANT LOOP 1 DEMAND BRANCH 70,PLANT LOOP 1,Plant Demand,NODE 465,NODE 466
   Branch,72,PLANT LOOP 1 DEMAND BRANCH 71,PLANT LOOP 1,Plant Demand,NODE 470,NODE 471
   Branch,73,PLANT LOOP 1 DEMAND BRANCH 72,PLANT LOOP 1,Plant Demand,NODE 475,NODE 476
   Branch,74,PLANT LOOP 1 DEMAND BRANCH 73,PLANT LOOP 1,Plant Demand,NODE 480,NODE 481
   Branch,75,PLANT LOOP 1 DEMAND BRANCH 74,PLANT LOOP 1,Plant Demand,NODE 485,NODE 486
   Branch,76,PLANT LOOP 1 DEMAND BRANCH 75,PLANT LOOP 1,Plant Demand,NODE 490,NODE 491
   Branch,77,PLANT LOOP 1 DEMAND BRANCH 76,PLANT LOOP 1,Plant Demand,NODE 495,NODE 496
   Branch,78,PLANT LOOP 1 DEMAND BRANCH 77,PLANT LOOP 1,Plant Demand,NODE 500,NODE 501
   Branch,79,PLANT LOOP 1 DEMAND BRANCH 78,PLANT LOOP 1,Plant Demand,NODE 505,NODE 506
   Branch,80,PLANT LOOP 1 DEMAND BRANCH 79,PLANT LOOP 1,Plant Demand,NODE 510,NODE 511
   Branch,81,PLANT LOOP 1 DEMAND BRANCH 80,PLANT LOOP 1,Plant Demand,NODE 515,NODE 516
   Branch,82,PLANT LOOP 1 DEMAND BRANCH 81,PLANT LOOP 1,Plant Demand,NODE 520,NODE 521
   Branch,83,PLANT LOOP 1 DEMAND BRANCH 82,PLANT LOOP 1,Plant Demand,NODE 525,NODE 526
   Branch,84,PLANT LOOP 1 DEMAND BRANCH 83,PLANT LOOP 1,Plant Demand,NODE 530,NODE 531
   Branch,85,PLANT LOOP 1 DEMAND BRANCH 84,PLANT LOOP 1,Plant Demand,NODE 535,NODE 536
   Branch,86,PLANT LOOP 1 DEMAND BRANCH 85,PLANT LOOP 1,Plant Demand,NODE 540,NODE 541
   Branch,87,PLANT LOOP 1 DEMAND BRANCH 86,PLANT LOOP 1,Plant Demand,NODE 545,NODE 546
   Branch,88,PLANT LOOP 1 DEMAND BRANCH 87,PLANT LOOP 1,Plant Demand,NODE 550,NODE 551
   Branch,89,PLANT LOOP 1 DEMAND BRANCH 88,PLANT LOOP 1,Plant Demand,NODE 555,NODE 556
   Branch,90,PLANT LOOP 1 DEMAND BRANCH 89,PLANT LOOP 1,Plant Demand,NODE 560,NODE 561
   Branch,91,PLANT LOOP 1 DEMAND BRANCH 90,PLANT LOOP 1,Plant Demand,NODE 565,NODE 566
   Branch,92,PLANT LOOP 1 DEMAND BRANCH 91,PLANT LOOP 1,Plant Demand,NODE 570,NODE 571
   Branch,93,PLANT LOOP 1 DEMAND BRANCH 92,PLANT LOOP 1,Plant Demand,NODE 575,NODE 576
   Branch,94,PLANT LOOP 1 DEMAND BRANCH 93,PLANT LOOP 1,Plant Demand,NODE 580,NODE 581
   Branch,95,PLANT LOOP 1 DEMAND BRANCH 94,PLANT LOOP 1,Plant Demand,NODE 585,NODE 586
   Branch,96,PLANT LOOP 1 DEMAND BRANCH 95,PLANT LOOP 1,Plant Demand,NODE 590,NODE 591
   Branch,97,PLANT LOOP 1 DEMAND BRANCH 96,PLANT LOOP 1,Plant Demand,NODE 595,NODE 596
   Branch,98,PLANT LOOP 1 DEMAND BRANCH 97,PLANT LOOP 1,Plant Demand,NODE 600,NODE 601
   Branch,99,PLANT LOOP 1 DEMAND BRANCH 98,PLANT LOOP 1,Plant Demand,NODE 605,NODE 606
   Branch,100,PLANT LOOP 1 DEMAND BRANCH 99,PLANT LOOP 1,Plant Demand,NODE 610,NODE 611
   Branch,101,PLANT LOOP 1 DEMAND BRANCH 100,PLANT LOOP 1,Plant Demand,NODE 615,NODE 616
   Branch,102,PLANT LOOP 1 DEMAND BRANCH 101,PLANT LOOP 1,Plant Demand,NODE 620,NODE 621
   Branch,103,PLANT LOOP 1 DEMAND BYPASS BRANCH,PLANT LOOP 1,Plant Demand,PLANT LOOP 1 DEMAND BYPASS PIPE INLET NODE,PLANT LOOP 1 DEMAND BYPASS PIPE OUTLET NODE
   Branch,104,PLANT LOOP 1 DEMAND OUTLET BRANCH,PLANT LOOP 1,Plant Demand,PLANT LOOP 1 DEMAND OUTLET PIPE NODE,NODE 115
! ===============================================================
! <#Supply Air Paths>,<Number of Supply Air Paths>
 #Supply Air Paths,1
! <Supply Air Path>,<Supply Air Path Count>,<Supply Air Path Name>,<AirLoopHVAC Name>
! <#Components on Supply Air Path>,<Number of Components>
! <Supply Air Path Component>,<Component Count>,<Component Type>,<Component Name>,<AirLoopHVAC Name>
! <#Outlet Nodes on Supply Air Path Component>,<Number of Nodes>
! <Supply Air Path Component Nodes>,<Node Count>,<Component Type>,<Component Name>,<Inlet Node Name>,<Outlet Node Name>,<AirLoopHVAC Name>
 Supply Air Path,1,AIRLOOPHVAC:SUPPLYPATH {BECEDD1D-9299-4ED4-B91A-665E8904524C},AIR LOOP HVAC 1
   #Components on Supply Air Path,1
   Supply Air Path Component,1,AIRLOOPHVAC:ZONESPLITTER,AIR LOOP HVAC ZONE SPLITTER 1,AIR LOOP HVAC 1
     #Outlet Nodes on Supply Air Path Component,100
     Supply Air Path Component Nodes,1,AIRLOOPHVAC:ZONESPLITTER,AIR LOOP HVAC ZONE SPLITTER 1,NODE 103,NODE 124,AIR LOOP HVAC 1
     Supply Air Path Component Nodes,2,AIRLOOPHVAC:ZONESPLITTER,AIR LOOP HVAC ZONE SPLITTER 1,NODE 103,NODE 129,AIR LOOP HVAC 1
     Supply Air Path Component Nodes,3,AIRLOOPHVAC:ZONESPLITTER,AIR LOOP HVAC ZONE SPLITTER 1,NODE 103,NODE 134,AIR LOOP HVAC 1
     Supply Air Path Component Nodes,4,AIRLOOPHVAC:ZONESPLITTER,AIR LOOP HVAC ZONE SPLITTER 1,NODE 103,NODE 139,AIR LOOP HVAC 1
     Supply Air Path Component Nodes,5,AIRLOOPHVAC:ZONESPLITTER,AIR LOOP HVAC ZONE SPLITTER 1,NODE 103,NODE 144,AIR LOOP HVAC 1
     Supply Air Path Component Nodes,6,AIRLOOPHVAC:ZONESPLITTER,AIR LOOP HVAC ZONE SPLITTER 1,NODE 103,NODE 149,AIR LOOP HVAC 1
     Supply Air Path Component Nodes,7,AIRLOOPHVAC:ZONESPLITTER,AIR LOOP HVAC ZONE SPLITTER 1,NODE 103,NODE 154,AIR LOOP HVAC 1
     Supply Air Path Component Nodes,8,AIRLOOPHVAC:ZONESPLITTER,AIR LOOP HVAC ZONE SPLITTER 1,NODE 103,NODE 159,AIR LOOP HVAC 1
     Supply Air Path Component Nodes,9,AIRLOOPHVAC:ZONESPLITTER,AIR LOOP HVAC ZONE SPLITTER 1,NODE 103,NODE 164,AIR LOOP HVAC 1
     Supply Air Path Component Nodes,10,AIRLOOPHVAC:ZONESPLITTER,AIR LOOP HVAC ZONE SPLITTER 1,NODE 103,NODE 169,AIR LOOP HVAC 1
     Supply Air Path Component Nodes,11,AIRLOOPHVAC:ZONESPLITTER,AIR LOOP HVAC ZONE SPLITTER 1,NODE 103,NODE 174,AIR LOOP HVAC 1
     Supply Air Path Component Nodes,12,AIRLOOPHVAC:ZONESPLITTER,AIR LOOP HVAC ZONE SPLITTER 1,NODE 103,NODE 179,AIR LOOP HVAC 1
     Supply Air Path Component Nodes,13,AIRLOOPHVAC:ZONESPLITTER,AIR LOOP HVAC ZONE SPLITTER 1,NODE 103,NODE 184,AIR LOOP HVAC 1
     Supply Air Path Component Nodes,14,AIRLOOPHVAC:ZONESPLITTER,AIR LOOP HVAC ZONE SPLITTER 1,NODE 103,NODE 189,AIR LOOP HVAC 1
     Supply Air Path Component Nodes,15,AIRLOOPHVAC:ZONESPLITTER,AIR LOOP HVAC ZONE SPLITTER 1,NODE 103,NODE 194,AIR LOOP HVAC 1
     Supply Air Path Component Nodes,16,AIRLOOPHVAC:ZONESPLITTER,AIR LOOP HVAC ZONE SPLITTER 1,NODE 103,NODE 199,AIR LOOP HVAC 1
     Supply Air Path Component Nodes,17,AIRLOOPHVAC:ZONESPLITTER,AIR LOOP HVAC ZONE SPLITTER 1,NODE 103,NODE 204,AIR LOOP HVAC 1
     Supply Air Path Component Nodes,18,AIRLOOPHVAC:ZONESPLITTER,AIR LOOP HVAC ZONE SPLITTER 1,NODE 103,NODE 209,AIR LOOP HVAC 1
     Supply Air Path Component Nodes,19,AIRLOOPHVAC:ZONESPLITTER,AIR LOOP HVAC ZONE SPLITTER 1,NODE 103,NODE 214,AIR LOOP HVAC 1
     Supply Air Path Component Nodes,20,AIRLOOPHVAC:ZONESPLITTER,AIR LOOP HVAC ZONE SPLITTER 1,NODE 103,NODE 219,AIR LOOP HVAC 1
     Supply Air Path Component Nodes,21,AIRLOOPHVAC:ZONESPLITTER,AIR LOOP HVAC ZONE SPLITTER 1,NODE 103,NODE 224,AIR LOOP HVAC 1
     Supply Air Path Component Nodes,22,AIRLOOPHVAC:ZONESPLITTER,AIR LOOP HVAC ZONE SPLITTER 1,NODE 103,NODE 229,AIR LOOP HVAC 1
     Supply Air Path Component Nodes,23,AIRLOOPHVAC:ZONESPLITTER,AIR LOOP HVAC ZONE SPLITTER 1,NODE 103,NODE 234,AIR LOOP HVAC 1
     Supply Air Path Component Nodes,24,AIRLOOPHVAC:ZONESPLITTER,AIR LOOP HVAC ZONE SPLITTER 1,NODE 103,NODE 239,AIR LOOP HVAC 1
     Supply Air Path Component Nodes,25,AIRLOOPHVAC:ZONESPLITTER,AIR LOOP HVAC ZONE SPLITTER 1,NODE 103,NODE 244,AIR LOOP HVAC 1
     Supply Air Path Component Nodes,26,AIRLOOPHVAC:ZONESPLITTER,AIR LOOP HVAC ZONE SPLITTER 1,NODE 103,NODE 249,AIR LOOP HVAC 1
     Supply Air Path Component Nodes,27,AIRLOOPHVAC:ZONESPLITTER,AIR LOOP HVAC ZONE SPLITTER 1,NODE 103,NODE 254,AIR LOOP HVAC 1
     Supply Air Path Component Nodes,28,AIRLOOPHVAC:ZONESPLITTER,AIR LOOP HVAC ZONE SPLITTER 1,NODE 103,NODE 259,AIR LOOP HVAC 1
     Supply Air Path Component Nodes,29,AIRLOOPHVAC:ZONESPLITTER,AIR LOOP HVAC ZONE SPLITTER 1,NODE 103,NODE 264,AIR LOOP HVAC 1
     Supply Air Path Component Nodes,30,AIRLOOPHVAC:ZONESPLITTER,AIR LOOP HVAC ZONE SPLITTER 1,NODE 103,NODE 269,AIR LOOP HVAC 1
     Supply Air Path Component Nodes,31,AIRLOOPHVAC:ZONESPLITTER,AIR LOOP HVAC ZONE SPLITTER 1,NODE 103,NODE 274,AIR LOOP HVAC 1
     Supply Air Path Component Nodes,32,AIRLOOPHVAC:ZONESPLITTER,AIR LOOP HVAC ZONE SPLITTER 1,NODE 103,NODE 279,AIR LOOP HVAC 1
     Supply Air Path Component Nodes,33,AIRLOOPHVAC:ZONESPLITTER,AIR LOOP HVAC ZONE SPLITTER 1,NODE 103,NODE 284,AIR LOOP HVAC 1
     Supply Air Path Component Nodes,34,AIRLOOPHVAC:ZONESPLITTER,AIR LOOP HVAC ZONE SPLITTER 1,NODE 103,NODE 289,AIR LOOP HVAC 1
     Supply Air Path Component Nodes,35,AIRLOOPHVAC:ZONESPLITTER,AIR LOOP HVAC ZONE SPLITTER 1,NODE 103,NODE 294,AIR LOOP HVAC 1
     Supply Air Path Component Nodes,36,AIRLOOPHVAC:ZONESPLITTER,AIR LOOP HVAC ZONE SPLITTER 1,NODE 103,NODE 299,AIR LOOP HVAC 1
     Supply Air Path Component Nodes,37,AIRLOOPHVAC:ZONESPLITTER,AIR LOOP HVAC ZONE SPLITTER 1,NODE 103,NODE 304,AIR LOOP HVAC 1
     Supply Air Path Component Nodes,38,AIRLOOPHVAC:ZONESPLITTER,AIR LOOP HVAC ZONE SPLITTER 1,NODE 103,NODE 309,AIR LOOP HVAC 1
     Supply Air Path Component Nodes,39,AIRLOOPHVAC:ZONESPLITTER,AIR LOOP HVAC ZONE SPLITTER 1,NODE 103,NODE 314,AIR LOOP HVAC 1
     Supply Air Path Component Nodes,40,AIRLOOPHVAC:ZONESPLITTER,AIR LOOP HVAC ZONE SPLITTER 1,NODE 103,NODE 319,AIR LOOP HVAC 1
     Supply Air Path Component Nodes,41,AIRLOOPHVAC:ZONESPLITTER,AIR LOOP HVAC ZONE SPLITTER 1,NODE 103,NODE 324,AIR LOOP HVAC 1
     Supply Air Path Component Nodes,42,AIRLOOPHVAC:ZONESPLITTER,AIR LOOP HVAC ZONE SPLITTER 1,NODE 103,NODE 329,AIR LOOP HVAC 1
     Supply Air Path Component Nodes,43,AIRLOOPHVAC:ZONESPLITTER,AIR LOOP HVAC ZONE SPLITTER 1,NODE 103,NODE 334,AIR LOOP HVAC 1
     Supply Air Path Component Nodes,44,AIRLOOPHVAC:ZONESPLITTER,AIR LOOP HVAC ZONE SPLITTER 1,NODE 103,NODE 339,AIR LOOP HVAC 1
     Supply Air Path Component Nodes,45,AIRLOOPHVAC:ZONESPLITTER,AIR LOOP HVAC ZONE SPLITTER 1,NODE 103,NODE 344,AIR LOOP HVAC 1
     Supply Air Path Component Nodes,46,AIRLOOPHVAC:ZONESPLITTER,AIR LOOP HVAC ZONE SPLITTER 1,NODE 103,NODE 349,AIR LOOP HVAC 1
     Supply Air Path Component Nodes,47,AIRLOOPHVAC:ZONESPLITTER,AIR LOOP HVAC ZONE SPLITTER 1,NODE 103,NODE 354,AIR LOOP HVAC 1
     Supply Air Path Component Nodes,48,AIRLOOPHVAC:ZONESPLITTER,AIR LOOP HVAC ZONE SPLITTER 1,NODE 103,NODE 359,AIR LOOP HVAC 1
     Supply Air Path Component Nodes,49,AIRLOOPHVAC:ZONESPLITTER,AIR LOOP HVAC ZONE SPLITTER 1,NODE 103,NODE 364,AIR LOOP HVAC 1
     Supply Air Path Component Nodes,50,AIRLOOPHVAC:ZONESPLITTER,AIR LOOP HVAC ZONE SPLITTER 1,NODE 103,NODE 369,AIR LOOP HVAC 1
     Supply Air Path Component Nodes,51,AIRLOOPHVAC:ZONESPLITTER,AIR LOOP HVAC ZONE SPLITTER 1,NODE 103,NODE 374,AIR LOOP HVAC 1
     Supply Air Path Component Nodes,52,AIRLOOPHVAC:ZONESPLITTER,AIR LOOP HVAC ZONE SPLITTER 1,NODE 103,NODE 379,AIR LOOP HVAC 1
     Supply Air Path Component Nodes,53,AIRLOOPHVAC:ZONESPLITTER,AIR LOOP HVAC ZONE SPLITTER 1,NODE 103,NODE 384,AIR LOOP HVAC 1
     Supply Air Path Component Nodes,54,AIRLOOPHVAC:ZONESPLITTER,AIR LOOP HVAC ZONE SPLITTER 1,NODE 103,NODE 389,AIR LOOP HVAC 1
     Supply Air Path Component Nodes,55,AIRLOOPHVAC:ZONESPLITTER,AIR LOOP HVAC ZONE SPLITTER 1,NODE 103,NODE 394,AIR LOOP HVAC 1
     Supply Air Path Component Nodes,56,AIRLOOPHVAC:ZONESPLITTER,AIR LOOP HVAC ZONE SPLITTER 1,NODE 103,NODE 399,AIR LOOP HVAC 1
     Supply Air Path Component Nodes,57,AIRLOOPHVAC:ZONESPLITTER,AIR LOOP HVAC ZONE SPLITTER 1,NODE 103,NODE 404,AIR LOOP HVAC 1
     Supply Air Path Component Nodes,58,AIRLOOPHVAC:ZONESPLITTER,AIR LOOP HVAC ZONE SPLITTER 1,NODE 103,NODE 409,AIR LOOP HVAC 1
     Supply Air Path Component Nodes,59,AIRLOOPHVAC:ZONESPLITTER,AIR LOOP HVAC ZONE SPLITTER 1,NODE 103,NODE 414,AIR LOOP HVAC 1
     Supply Air Path Component Nodes,60,AIRLOOPHVAC:ZONESPLITTER,AIR LOOP HVAC ZONE SPLITTER 1,NODE 103,NODE 419,AIR LOOP HVAC 1
     Supply Air Path Component Nodes,61,AIRLOOPHVAC:ZONESPLITTER,AIR LOOP HVAC ZONE SPLITTER 1,NODE 103,NODE 424,AIR LOOP HVAC 1
     Supply Air Path Component Nodes,62,AIRLOOPHVAC:ZONESPLITTER,AIR LOOP HVAC ZONE SPLITTER 1,NODE 103,NODE 429,AIR LOOP HVAC 1
     Supply Air Path Component Nodes,63,AIRLOOPHVAC:ZONESPLITTER,AIR LOOP HVAC ZONE SPLITTER 1,NODE 103,NODE 434,AIR LOOP HVAC 1
     Supply Air Path Component Nodes,64,AIRLOOPHVAC:ZONESPLITTER,AIR LOOP HVAC ZONE SPLITTER 1,NODE 103,NODE 439,AIR LOOP HVAC 1
     Supply Air Path Component Nodes,65,AIRLOOPHVAC:ZONESPLITTER,AIR LOOP HVAC ZONE SPLITTER 1,NODE 103,NODE 444,AIR LOOP HVAC 1
     Supply Air Path Component Nodes,66,AIRLOOPHVAC:ZONESPLITTER,AIR LOOP HVAC ZONE SPLITTER 1,NODE 103,NODE 449,AIR LOOP HVAC 1
     Supply Air Path Component Nodes,67,AIRLOOPHVAC:ZONESPLITTER,AIR LOOP HVAC ZONE SPLITTER 1,NODE 103,NODE 454,AIR LOOP HVAC 1
     Supply Air Path Component Nodes,68,AIRLOOPHVAC:ZONESPLITTER,AIR LOOP HVAC ZONE SPLITTER 1,NODE 103,NODE 459,AIR LOOP HVAC 1
     Supply Air Path Component Nodes,69,AIRLOOPHVAC:ZONESPLITTER,AIR LOOP HVAC ZONE SPLITTER 1,NODE 103,NODE 464,AIR LOOP HVAC 1
     Supply Air Path Component Nodes,70,AIRLOOPHVAC:ZONESPLITTER,AIR LOOP HVAC ZONE SPLITTER 1,NODE 103,NODE 469,AIR LOOP HVAC 1
     Supply Air Path Component Nodes,71,AIRLOOPHVAC:ZONESPLITTER,AIR LOOP HVAC ZONE SPLITTER 1,NODE 103,NODE 474,AIR LOOP HVAC 1
     Supply Air Path Component Nodes,72,AIRLOOPHVAC:ZONESPLITTER,AIR LOOP HVAC ZONE SPLITTER 1,NODE 103,NODE 479,AIR LOOP HVAC 1
     Supply Air Path Component Nodes,73,AIRLOOPHVAC:ZONESPLITTER,AIR LOOP HVAC ZONE SPLITTER 1,NODE 103,NODE 484,AIR LOOP HVAC 1
     Supply Air Path Component Nodes,74,AIRLOOPHVAC:ZONESPLITTER,AIR LOOP HVAC ZONE SPLITTER 1,NODE 103,NODE 489,AIR LOOP HVAC 1
     Supply Air Path Component Nodes,75,AIRLOOPHVAC:ZONESPLITTER,AIR LOOP HVAC ZONE SPLITTER 1,NODE 103,NODE 494,AIR LOOP HVAC 1
     Supply Air Path Component Nodes,76,AIRLOOPHVAC:ZONESPLITTER,AIR LOOP HVAC ZONE SPLITTER 1,NODE 103,NODE 499,AIR LOOP HVAC 1
     Supply Air Path Component Nodes,77,AIRLOOPHVAC:ZONESPLITTER,AIR LOOP HVAC ZONE SPLITTER 1,NODE 103,NODE 504,AIR LOOP HVAC 1
     Supply Air Path Component Nodes,78,AIRLOOPHVAC:ZONESPLITTER,AIR LOOP HVAC ZONE SPLITTER 1,NODE 103,NODE 509,AIR LOOP HVAC 1
     Supply Air Path Component Nodes,79,AIRLOOPHVAC:ZONESPLITTER,AIR LOOP HVAC ZONE SPLITTER 1,NODE 103,NODE 514,AIR LOOP HVAC 1
     Supply Air Path Component Nodes,80,AIRLOOPHVAC:ZONESPLITTER,AIR LOOP HVAC ZONE SPLITTER 1,NODE 103,NODE 519,AIR LOOP HVAC 1
     Supply Air Path Component Nodes,81,AIRLOOPHVAC:ZONESPLITTER,AIR LOOP HVAC ZONE SPLITTER 1,NODE 103,NODE 524,AIR LOOP HVAC 1
     Supply Air Path Component Nodes,82,AIRLOOPHVAC:ZONESPLITTER,AIR LOOP HVAC ZONE SPLITTER 1,NODE 103,NODE 529,AIR LOOP HVAC 1
     Supply Air Path Component Nodes,83,AIRLOOPHVAC:ZONESPLITTER,AIR LOOP HVAC ZONE SPLITTER 1,NODE 103,NODE 534,AIR LOOP HVAC 1
     Supply Air Path Component Nodes,84,AIRLOOPHVAC:ZONESPLITTER,AIR LOOP HVAC ZONE SPLITTER 1,NODE 103,NODE 539,AIR LOOP HVAC 1
     Supply Air Path Component Nodes,85,AIRLOOPHVAC:ZONESPLITTER,AIR LOOP HVAC ZONE SPLITTER 1,NODE 103,NODE 544,AIR LOOP HVAC 1
     Supply Air Path Component Nodes,86,AIRLOOPHVAC:ZONESPLITTER,AIR LOOP HVAC ZONE SPLITTER 1,NODE 103,NODE 549,AIR LOOP HVAC 1
     Supply Air Path Component Nodes,87,AIRLOOPHVAC:ZONESPLITTER,AIR LOOP HVAC ZONE SPLITTER 1,NODE 103,NODE 554,AIR LOOP HVAC 1
     Supply Air Path Component Nodes,88,AIRLOOPHVAC:ZONESPLITTER,AIR LOOP HVAC ZONE SPLITTER 1,NODE 103,NODE 559,AIR LOOP HVAC 1
     Supply Air Path Component Nodes,89,AIRLOOPHVAC:ZONESPLITTER,AIR LOOP HVAC ZONE SPLITTER 1,NODE 103,NODE 564,AIR LOOP HVAC 1
     Supply Air Path Component Nodes,90,AIRLOOPHVAC:ZONESPLITTER,AIR LOOP HVAC ZONE SPLITTER 1,NODE 103,NODE 569,AIR LOOP HVAC 1
     Supply Air Path Component Nodes,91,AIRLOOPHVAC:ZONESPLITTER,AIR LOOP HVAC ZONE SPLITTER 1,NODE 103,NODE 574,AIR LOOP HVAC 1
     Supply Air Path Component Nodes,92,AIRLOOPHVAC:ZONESPLITTER,AIR LOOP HVAC ZONE SPLITTER 1,NODE 103,NODE 579,AIR LOOP HVAC 1
     Supply Air Path Component Nodes,93,AIRLOOPHVAC:ZONESPLITTER,AIR LOOP HVAC ZONE SPLITTER 1,NODE 103,NODE 584,AIR LOOP HVAC 1
     Supply Air Path Component Nodes,94,AIRLOOPHVAC:ZONESPLITTER,AIR LOOP HVAC ZONE SPLITTER 1,NODE 103,NODE 589,AIR LOOP HVAC 1
     Supply Air Path Component Nodes,95,AIRLOOPHVAC:ZONESPLITTER,AIR LOOP HVAC ZONE SPLITTER 1,NODE 103,NODE 594,AIR LOOP HVAC 1
     Supply Air Path Component Nodes,96,AIRLOOPHVAC:ZONESPLITTER,AIR LOOP HVAC ZONE SPLITTER 1,NODE 103,NODE 599,AIR LOOP HVAC 1
     Supply Air Path Component Nodes,97,AIRLOOPHVAC:ZONESPLITTER,AIR LOOP HVAC ZONE SPLITTER 1,NODE 103,NODE 604,AIR LOOP HVAC 1
     Supply Air Path Component Nodes,98,AIRLOOPHVAC:ZONESPLITTER,AIR LOOP HVAC ZONE SPLITTER 1,NODE 103,NODE 609,AIR LOOP HVAC 1
     Supply Air Path Component Nodes,99,AIRLOOPHVAC:ZONESPLITTER,AIR LOOP HVAC ZONE SPLITTER 1,NODE 103,NODE 614,AIR LOOP HVAC 1
     Supply Air Path Component Nodes,100,AIRLOOPHVAC:ZONESPLITTER,AIR LOOP HVAC ZONE SPLITTER 1,NODE 103,NODE 619,AIR LOOP HVAC 1
! <#Nodes on Supply Air Path>,<Number of Nodes>
! <Supply Air Path Node>,<Node Type>,<Node Count>,<Node Name>,<AirLoopHVAC Name>
#Nodes on Supply Air Path,101
   Supply Air Path Node,Inlet Node,1,NODE 103,AIR LOOP HVAC 1
   Supply Air Path Node,Outlet Node,2,NODE 124,AIR LOOP HVAC 1
   Supply Air Path Node,Outlet Node,3,NODE 129,AIR LOOP HVAC 1
   Supply Air Path Node,Outlet Node,4,NODE 134,AIR LOOP HVAC 1
   Supply Air Path Node,Outlet Node,5,NODE 139,AIR LOOP HVAC 1
   Supply Air Path Node,Outlet Node,6,NODE 144,AIR LOOP HVAC 1
   Supply Air Path Node,Outlet Node,7,NODE 149,AIR LOOP HVAC 1
   Supply Air Path Node,Outlet Node,8,NODE 154,AIR LOOP HVAC 1
   Supply Air Path Node,Outlet Node,9,NODE 159,AIR LOOP HVAC 1
   Supply Air Path Node,Outlet Node,10,NODE 164,AIR LOOP HVAC 1
   Supply Air Path Node,Outlet Node,11,NODE 169,AIR LOOP HVAC 1
   Supply Air Path Node,Outlet Node,12,NODE 174,AIR LOOP HVAC 1
   Supply Air Path Node,Outlet Node,13,NODE 179,AIR LOOP HVAC 1
   Supply Air Path Node,Outlet Node,14,NODE 184,AIR LOOP HVAC 1
   Supply Air Path Node,Outlet Node,15,NODE 189,AIR LOOP HVAC 1
   Supply Air Path Node,Outlet Node,16,NODE 194,AIR LOOP HVAC 1
   Supply Air Path Node,Outlet Node,17,NODE 199,AIR LOOP HVAC 1
   Supply Air Path Node,Outlet Node,18,NODE 204,AIR LOOP HVAC 1
   Supply Air Path Node,Outlet Node,19,NODE 209,AIR LOOP HVAC 1
   Supply Air Path Node,Outlet Node,20,NODE 214,AIR LOOP HVAC 1
   Supply Air Path Node,Outlet Node,21,NODE 219,AIR LOOP HVAC 1
   Supply Air Path Node,Outlet Node,22,NODE 224,AIR LOOP HVAC 1
   Supply Air Path Node,Outlet Node,23,NODE 229,AIR LOOP HVAC 1
   Supply Air Path Node,Outlet Node,24,NODE 234,AIR LOOP HVAC 1
   Supply Air Path Node,Outlet Node,25,NODE 239,AIR LOOP HVAC 1
   Supply Air Path Node,Outlet Node,26,NODE 244,AIR LOOP HVAC 1
   Supply Air Path Node,Outlet Node,27,NODE 249,AIR LOOP HVAC 1
   Supply Air Path Node,Outlet Node,28,NODE 254,AIR LOOP HVAC 1
   Supply Air Path Node,Outlet Node,29,NODE 259,AIR LOOP HVAC 1
   Supply Air Path Node,Outlet Node,30,NODE 264,AIR LOOP HVAC 1
   Supply Air Path Node,Outlet Node,31,NODE 269,AIR LOOP HVAC 1
   Supply Air Path Node,Outlet Node,32,NODE 274,AIR LOOP HVAC 1
   Supply Air Path Node,Outlet Node,33,NODE 279,AIR LOOP HVAC 1
   Supply Air Path Node,Outlet Node,34,NODE 284,AIR LOOP HVAC 1
   Supply Air Path Node,Outlet Node,35,NODE 289,AIR LOOP HVAC 1
   Supply Air Path Node,Outlet Node,36,NODE 294,AIR LOOP HVAC 1
   Supply Air Path Node,Outlet Node,37,NODE 299,AIR LOOP HVAC 1
   Supply Air Path Node,Outlet Node,38,NODE 304,AIR LOOP HVAC 1
   Supply Air Path Node,Outlet Node,39,NODE 309,AIR LOOP HVAC 1
   Supply Air Path Node,Outlet Node,40,NODE 314,AIR LOOP HVAC 1
   Supply Air Path Node,Outlet Node,41,NODE 319,AIR LOOP HVAC 1
   Supply Air Path Node,Outlet Node,42,NODE 324,AIR LOOP HVAC 1
   Supply Air Path Node,Outlet Node,43,NODE 329,AIR LOOP HVAC 1
   Supply Air Path Node,Outlet Node,44,NODE 334,AIR LOOP HVAC 1
   Supply Air Path Node,Outlet Node,45,NODE 339,AIR LOOP HVAC 1
   Supply Air Path Node,Outlet Node,46,NODE 344,AIR LOOP HVAC 1
   Supply Air Path Node,Outlet Node,47,NODE 349,AIR LOOP HVAC 1
   Supply Air Path Node,Outlet Node,48,NODE 354,AIR LOOP HVAC 1
   Supply Air Path Node,Outlet Node,49,NODE 359,AIR LOOP HVAC 1
   Supply Air Path Node,Outlet Node,50,NODE 364,AIR LOOP HVAC 1
   Supply Air Path Node,Outlet Node,51,NODE 369,AIR LOOP HVAC 1
   Supply Air Path Node,Outlet Node,52,NODE 374,AIR LOOP HVAC 1
   Supply Air Path Node,Outlet Node,53,NODE 379,AIR LOOP HVAC 1
   Supply Air Path Node,Outlet Node,54,NODE 384,AIR LOOP HVAC 1
   Supply Air Path Node,Outlet Node,55,NODE 389,AIR LOOP HVAC 1
   Supply Air Path Node,Outlet Node,56,NODE 394,AIR LOOP HVAC 1
   Supply Air Path Node,Outlet Node,57,NODE 399,AIR LOOP HVAC 1
   Supply Air Path Node,Outlet Node,58,NODE 404,AIR LOOP HVAC 1
   Supply Air Path Node,Outlet Node,59,NODE 409,AIR LOOP HVAC 1
   Supply Air Path Node,Outlet Node,60,NODE 414,AIR LOOP HVAC 1
   Supply Air Path Node,Outlet Node,61,NODE 419,AIR LOOP HVAC 1
   Supply Air Path Node,Outlet Node,62,NODE 424,AIR LOOP HVAC 1
   Supply Air Path Node,Outlet Node,63,NODE 429,AIR LOOP HVAC 1
   Supply Air Path Node,Outlet Node,64,NODE 434,AIR LOOP HVAC 1
   Supply Air Path Node,Outlet Node,65,NODE 439,AIR LOOP HVAC 1
   Supply Air Path Node,Outlet Node,66,NODE 444,AIR LOOP HVAC 1
   Supply Air Path Node,Outlet Node,67,NODE 449,AIR LOOP HVAC 1
   Supply Air Path Node,Outlet Node,68,NODE 454,AIR LOOP HVAC 1
   Supply Air Path Node,Outlet Node,69,NODE 459,AIR LOOP HVAC 1
   Supply Air Path Node,Outlet Node,70,NODE 464,AIR LOOP HVAC 1
   Supply Air Path Node,Outlet Node,71,NODE 469,AIR LOOP HVAC 1
   Supply Air Path Node,Outlet Node,72,NODE 474,AIR LOOP HVAC 1
   Supply Air Path Node,Outlet Node,73,NODE 479,AIR LOOP HVAC 1
   Supply Air Path Node,Outlet Node,74,NODE 484,AIR LOOP HVAC 1
   Supply Air Path Node,Outlet Node,75,NODE 489,AIR LOOP HVAC 1
   Supply Air Path Node,Outlet Node,76,NODE 494,AIR LOOP HVAC 1
   Supply Air Path Node,Outlet Node,77,NODE 499,AIR LOOP HVAC 1
   Supply Air Path Node,Outlet Node,78,NODE 504,AIR LOOP HVAC 1
   Supply Air Path Node,Outlet Node,79,NODE 509,AIR LOOP HVAC 1
   Supply Air Path Node,Outlet Node,80,NODE 514,AIR LOOP HVAC 1
   Supply Air Path Node,Outlet Node,81,NODE 519,AIR LOOP HVAC 1
   Supply Air Path Node,Outlet Node,82,NODE 524,AIR LOOP HVAC 1
   Supply Air Path Node,Outlet Node,83,NODE 529,AIR LOOP HVAC 1
   Supply Air Path Node,Outlet Node,84,NODE 534,AIR LOOP HVAC 1
   Supply Air Path Node,Outlet Node,85,NODE 539,AIR LOOP HVAC 1
   Supply Air Path Node,Outlet Node,86,NODE 544,AIR LOOP HVAC 1
   Supply Air Path Node,Outlet Node,87,NODE 549,AIR LOOP HVAC 1
   Supply Air Path Node,Outlet Node,88,NODE 554,AIR LOOP HVAC 1
   Supply Air Path Node,Outlet Node,89,NODE 559,AIR LOOP HVAC 1
   Supply Air Path Node,Outlet Node,90,NODE 564,AIR LOOP HVAC 1
   Supply Air Path Node,Outlet Node,91,NODE 569,AIR LOOP HVAC 1
   Supply Air Path Node,Outlet Node,92,NODE 574,AIR LOOP HVAC 1
   Supply Air Path Node,Outlet Node,93,NODE 579,AIR LOOP HVAC 1
   Supply Air Path Node,Outlet Node,94,NODE 584,AIR LOOP HVAC 1
   Supply Air Path Node,Outlet Node,95,NODE 589,AIR LOOP HVAC 1
   Supply Air Path Node,Outlet Node,96,NODE 594,AIR LOOP HVAC 1
   Supply Air Path Node,Outlet Node,97,NODE 599,AIR LOOP HVAC 1
   Supply Air Path Node,Outlet Node,98,NODE 604,AIR LOOP HVAC 1
   Supply Air Path Node,Outlet Node,99,NODE 609,AIR LOOP HVAC 1
   Supply Air Path Node,Outlet Node,100,NODE 614,AIR LOOP HVAC 1
   Supply Air Path Node,Outlet Node,101,NODE 619,AIR LOOP HVAC 1
! ===============================================================
! <#Return Air Paths>,<Number of Return Air Paths>
 #Return Air Paths,1
! <Return Air Path>,<Return Air Path Count>,<Return Air Path Name>,<AirLoopHVAC Name>
! <#Components on Return Air Path>,<Number of Components>
! <Return Air Path Component>,<Component Count>,<Component Type>,<Component Name>,<AirLoopHVAC Name>
! <#Inlet Nodes on Return Air Path Component>,<Number of Nodes>
! <Return Air Path Component Nodes>,<Node Count>,<Component Type>,<Component Name>,<Inlet Node Name>,<Outlet Node Name>,<AirLoopHVAC Name>
 Return Air Path,1,AIRLOOPHVAC:RETURNPATH {1DCDA4EA-99CD-4D9D-BC4A-89B8A4760282},AIR LOOP HVAC 1
   #Components on Return Air Path,1
   Return Air Path Component,1,AIRLOOPHVAC:ZONEMIXER,AIR LOOP HVAC ZONE MIXER 1,AIR LOOP HVAC 1
     #Inlet Nodes on Return Air Path Component,100
     Return Air Path Component Nodes,1,AIRLOOPHVAC:ZONEMIXER,AIR LOOP HVAC ZONE MIXER 1,NODE 123,NODE 104,AIR LOOP HVAC 1
     Return Air Path Component Nodes,2,AIRLOOPHVAC:ZONEMIXER,AIR LOOP HVAC ZONE MIXER 1,NODE 128,NODE 104,AIR LOOP HVAC 1
     Return Air Path Component Nodes,3,AIRLOOPHVAC:ZONEMIXER,AIR LOOP HVAC ZONE MIXER 1,NODE 133,NODE 104,AIR LOOP HVAC 1
     Return Air Path Component Nodes,4,AIRLOOPHVAC:ZONEMIXER,AIR LOOP HVAC ZONE MIXER 1,NODE 138,NODE 104,AIR LOOP HVAC 1
     Return Air Path Component Nodes,5,AIRLOOPHVAC:ZONEMIXER,AIR LOOP HVAC ZONE MIXER 1,NODE 143,NODE 104,AIR LOOP HVAC 1
     Return Air Path Component Nodes,6,AIRLOOPHVAC:ZONEMIXER,AIR LOOP HVAC ZONE MIXER 1,NODE 148,NODE 104,AIR LOOP HVAC 1
     Return Air Path Component Nodes,7,AIRLOOPHVAC:ZONEMIXER,AIR LOOP HVAC ZONE MIXER 1,NODE 153,NODE 104,AIR LOOP HVAC 1
     Return Air Path Component Nodes,8,AIRLOOPHVAC:ZONEMIXER,AIR LOOP HVAC ZONE MIXER 1,NODE 158,NODE 104,AIR LOOP HVAC 1
     Return Air Path Component Nodes,9,AIRLOOPHVAC:ZONEMIXER,AIR LOOP HVAC ZONE MIXER 1,NODE 163,NODE 104,AIR LOOP HVAC 1
     Return Air Path Component Nodes,10,AIRLOOPHVAC:ZONEMIXER,AIR LOOP HVAC ZONE MIXER 1,NODE 168,NODE 104,AIR LOOP HVAC 1
     Return Air Path Component Nodes,11,AIRLOOPHVAC:ZONEMIXER,AIR LOOP HVAC ZONE MIXER 1,NODE 173,NODE 104,AIR LOOP HVAC 1
     Return Air Path Component Nodes,12,AIRLOOPHVAC:ZONEMIXER,AIR LOOP HVAC ZONE MIXER 1,NODE 178,NODE 104,AIR LOOP HVAC 1
     Return Air Path Component Nodes,13,AIRLOOPHVAC:ZONEMIXER,AIR LOOP HVAC ZONE MIXER 1,NODE 183,NODE 104,AIR LOOP HVAC 1
     Return Air Path Component Nodes,14,AIRLOOPHVAC:ZONEMIXER,AIR LOOP HVAC ZONE MIXER 1,NODE 188,NODE 104,AIR LOOP HVAC 1
     Return Air Path Component Nodes,15,AIRLOOPHVAC:ZONEMIXER,AIR LOOP HVAC ZONE MIXER 1,NODE 193,NODE 104,AIR LOOP HVAC 1
     Return Air Path Component Nodes,16,AIRLOOPHVAC:ZONEMIXER,AIR LOOP HVAC ZONE MIXER 1,NODE 198,NODE 104,AIR LOOP HVAC 1
     Return Air Path Component Nodes,17,AIRLOOPHVAC:ZONEMIXER,AIR LOOP HVAC ZONE MIXER 1,NODE 203,NODE 104,AIR LOOP HVAC 1
     Return Air Path Component Nodes,18,AIRLOOPHVAC:ZONEMIXER,AIR LOOP HVAC ZONE MIXER 1,NODE 208,NODE 104,AIR LOOP HVAC 1
     Return Air Path Component Nodes,19,AIRLOOPHVAC:ZONEMIXER,AIR LOOP HVAC ZONE MIXER 1,NODE 213,NODE 104,AIR LOOP HVAC 1
     Return Air Path Component Nodes,20,AIRLOOPHVAC:ZONEMIXER,AIR LOOP HVAC ZONE MIXER 1,NODE 218,NODE 104,AIR LOOP HVAC 1
     Return Air Path Component Nodes,21,AIRLOOPHVAC:ZONEMIXER,AIR LOOP HVAC ZONE MIXER 1,NODE 223,NODE 104,AIR LOOP HVAC 1
     Return Air Path Component Nodes,22,AIRLOOPHVAC:ZONEMIXER,AIR LOOP HVAC ZONE MIXER 1,NODE 228,NODE 104,AIR LOOP HVAC 1
     Return Air Path Component Nodes,23,AIRLOOPHVAC:ZONEMIXER,AIR LOOP HVAC ZONE MIXER 1,NODE 233,NODE 104,AIR LOOP HVAC 1
     Return Air Path Component Nodes,24,AIRLOOPHVAC:ZONEMIXER,AIR LOOP HVAC ZONE MIXER 1,NODE 238,NODE 104,AIR LOOP HVAC 1
     Return Air Path Component Nodes,25,AIRLOOPHVAC:ZONEMIXER,AIR LOOP HVAC ZONE MIXER 1,NODE 243,NODE 104,AIR LOOP HVAC 1
     Return Air Path Component Nodes,26,AIRLOOPHVAC:ZONEMIXER,AIR LOOP HVAC ZONE MIXER 1,NODE 248,NODE 104,AIR LOOP HVAC 1
     Return Air Path Component Nodes,27,AIRLOOPHVAC:ZONEMIXER,AIR LOOP HVAC ZONE MIXER 1,NODE 253,NODE 104,AIR LOOP HVAC 1
     Return Air Path Component Nodes,28,AIRLOOPHVAC:ZONEMIXER,AIR LOOP HVAC ZONE MIXER 1,NODE 258,NODE 104,AIR LOOP HVAC 1
     Return Air Path Component Nodes,29,AIRLOOPHVAC:ZONEMIXER,AIR LOOP HVAC ZONE MIXER 1,NODE 263,NODE 104,AIR LOOP HVAC 1
     Return Air Path Component Nodes,30,AIRLOOPHVAC:ZONEMIXER,AIR LOOP HVAC ZONE MIXER 1,NODE 268,NODE 104,AIR LOOP HVAC 1
     Return Air Path Component Nodes,31,AIRLOOPHVAC:ZONEMIXER,AIR LOOP HVAC ZONE MIXER 1,NODE 273,NODE 104,AIR LOOP HVAC 1
     Return Air Path Component Nodes,32,AIRLOOPHVAC:ZONEMIXER,AIR LOOP HVAC ZONE MIXER 1,NODE 278,NODE 104,AIR LOOP HVAC 1
     Return Air Path Component Nodes,33,AIRLOOPHVAC:ZONEMIXER,AIR LOOP HVAC ZONE MIXER 1,NODE 283,NODE 104,AIR LOOP HVAC 1
     Return Air Path Component Nodes,34,AIRLOOPHVAC:ZONEMIXER,AIR LOOP HVAC ZONE MIXER 1,NODE 288,NODE 104,AIR LOOP HVAC 1
     Return Air Path Component Nodes,35,AIRLOOPHVAC:ZONEMIXER,AIR LOOP HVAC ZONE MIXER 1,NODE 293,NODE 104,AIR LOOP HVAC 1
     Return Air Path Component Nodes,36,AIRLOOPHVAC:ZONEMIXER,AIR LOOP HVAC ZONE MIXER 1,NODE 298,NODE 104,AIR LOOP HVAC 1
     Return Air Path Component Nodes,37,AIRLOOPHVAC:ZONEMIXER,AIR LOOP HVAC ZONE MIXER 1,NODE 303,NODE 104,AIR LOOP HVAC 1
     Return Air Path Component Nodes,38,AIRLOOPHVAC:ZONEMIXER,AIR LOOP HVAC ZONE MIXER 1,NODE 308,NODE 104,AIR LOOP HVAC 1
     Return Air Path Component Nodes,39,AIRLOOPHVAC:ZONEMIXER,AIR LOOP HVAC ZONE MIXER 1,NODE 313,NODE 104,AIR LOOP HVAC 1
     Return Air Path Component Nodes,40,AIRLOOPHVAC:ZONEMIXER,AIR LOOP HVAC ZONE MIXER 1,NODE 318,NODE 104,AIR LOOP HVAC 1
     Return Air Path Component Nodes,41,AIRLOOPHVAC:ZONEMIXER,AIR LOOP HVAC ZONE MIXER 1,NODE 323,NODE 104,AIR LOOP HVAC 1
     Return Air Path Component Nodes,42,AIRLOOPHVAC:ZONEMIXER,AIR LOOP HVAC ZONE MIXER 1,NODE 328,NODE 104,AIR LOOP HVAC 1
     Return Air Path Component Nodes,43,AIRLOOPHVAC:ZONEMIXER,AIR LOOP HVAC ZONE MIXER 1,NODE 333,NODE 104,AIR LOOP HVAC 1
     Return Air Path Component Nodes,44,AIRLOOPHVAC:ZONEMIXER,AIR LOOP HVAC ZONE MIXER 1,NODE 338,NODE 104,AIR LOOP HVAC 1
     Return Air Path Component Nodes,45,AIRLOOPHVAC:ZONEMIXER,AIR LOOP HVAC ZONE MIXER 1,NODE 343,NODE 104,AIR LOOP HVAC 1
     Return Air Path Component Nodes,46,AIRLOOPHVAC:ZONEMIXER,AIR LOOP HVAC ZONE MIXER 1,NODE 348,NODE 104,AIR LOOP HVAC 1
     Return Air Path Component Nodes,47,AIRLOOPHVAC:ZONEMIXER,AIR LOOP HVAC ZONE MIXER 1,NODE 353,NODE 104,AIR LOOP HVAC 1
     Return Air Path Component Nodes,48,AIRLOOPHVAC:ZONEMIXER,AIR LOOP HVAC ZONE MIXER 1,NODE 358,NODE 104,AIR LOOP HVAC 1
     Return Air Path Component Nodes,49,AIRLOOPHVAC:ZONEMIXER,AIR LOOP HVAC ZONE MIXER 1,NODE 363,NODE 104,AIR LOOP HVAC 1
     Return Air Path Component Nodes,50,AIRLOOPHVAC:ZONEMIXER,AIR LOOP HVAC ZONE MIXER 1,NODE 368,NODE 104,AIR LOOP HVAC 1
     Return Air Path Component Nodes,51,AIRLOOPHVAC:ZONEMIXER,AIR LOOP HVAC ZONE MIXER 1,NODE 373,NODE 104,AIR LOOP HVAC 1
     Return Air Path Component Nodes,52,AIRLOOPHVAC:ZONEMIXER,AIR LOOP HVAC ZONE MIXER 1,NODE 378,NODE 104,AIR LOOP HVAC 1
     Return Air Path Component Nodes,53,AIRLOOPHVAC:ZONEMIXER,AIR LOOP HVAC ZONE MIXER 1,NODE 383,NODE 104,AIR LOOP HVAC 1
     Return Air Path Component Nodes,54,AIRLOOPHVAC:ZONEMIXER,AIR LOOP HVAC ZONE MIXER 1,NODE 388,NODE 104,AIR LOOP HVAC 1
     Return Air Path Component Nodes,55,AIRLOOPHVAC:ZONEMIXER,AIR LOOP HVAC ZONE MIXER 1,NODE 393,NODE 104,AIR LOOP HVAC 1
     Return Air Path Component Nodes,56,AIRLOOPHVAC:ZONEMIXER,AIR LOOP HVAC ZONE MIXER 1,NODE 398,NODE 104,AIR LOOP HVAC 1
     Return Air Path Component Nodes,57,AIRLOOPHVAC:ZONEMIXER,AIR LOOP HVAC ZONE MIXER 1,NODE 403,NODE 104,AIR LOOP HVAC 1
     Return Air Path Component Nodes,58,AIRLOOPHVAC:ZONEMIXER,AIR LOOP HVAC ZONE MIXER 1,NODE 408,NODE 104,AIR LOOP HVAC 1
     Return Air Path Component Nodes,59,AIRLOOPHVAC:ZONEMIXER,AIR LOOP HVAC ZONE MIXER 1,NODE 413,NODE 104,AIR LOOP HVAC 1
     Return Air Path Component Nodes,60,AIRLOOPHVAC:ZONEMIXER,AIR LOOP HVAC ZONE MIXER 1,NODE 418,NODE 104,AIR LOOP HVAC 1
     Return Air Path Component Nodes,61,AIRLOOPHVAC:ZONEMIXER,AIR LOOP HVAC ZONE MIXER 1,NODE 423,NODE 104,AIR LOOP HVAC 1
     Return Air Path Component Nodes,62,AIRLOOPHVAC:ZONEMIXER,AIR LOOP HVAC ZONE MIXER 1,NODE 428,NODE 104,AIR LOOP HVAC 1
     Return Air Path Component Nodes,63,AIRLOOPHVAC:ZONEMIXER,AIR LOOP HVAC ZONE MIXER 1,NODE 433,NODE 104,AIR LOOP HVAC 1
     Return Air Path Component Nodes,64,AIRLOOPHVAC:ZONEMIXER,AIR LOOP HVAC ZONE MIXER 1,NODE 438,NODE 104,AIR LOOP HVAC 1
     Return Air Path Component Nodes,65,AIRLOOPHVAC:ZONEMIXER,AIR LOOP HVAC ZONE MIXER 1,NODE 443,NODE 104,AIR LOOP HVAC 1
     Return Air Path Component Nodes,66,AIRLOOPHVAC:ZONEMIXER,AIR LOOP HVAC ZONE MIXER 1,NODE 448,NODE 104,AIR LOOP HVAC 1
     Return Air Path Component Nodes,67,AIRLOOPHVAC:ZONEMIXER,AIR LOOP HVAC ZONE MIXER 1,NODE 453,NODE 104,AIR LOOP HVAC 1
     Return Air Path Component Nodes,68,AIRLOOPHVAC:ZONEMIXER,AIR LOOP HVAC ZONE MIXER 1,NODE 458,NODE 104,AIR LOOP HVAC 1
     Return Air Path Component Nodes,69,AIRLOOPHVAC:ZONEMIXER,AIR LOOP HVAC ZONE MIXER 1,NODE 463,NODE 104,AIR LOOP HVAC 1
     Return Air Path Component Nodes,70,AIRLOOPHVAC:ZONEMIXER,AIR LOOP HVAC ZONE MIXER 1,NODE 468,NODE 104,AIR LOOP HVAC 1
     Return Air Path Component Nodes,71,AIRLOOPHVAC:ZONEMIXER,AIR LOOP HVAC ZONE MIXER 1,NODE 473,NODE 104,AIR LOOP HVAC 1
     Return Air Path Component Nodes,72,AIRLOOPHVAC:ZONEMIXER,AIR LOOP HVAC ZONE MIXER 1,NODE 478,NODE 104,AIR LOOP HVAC 1
     Return Air Path Component Nodes,73,AIRLOOPHVAC:ZONEMIXER,AIR LOOP HVAC ZONE MIXER 1,NODE 483,NODE 104,AIR LOOP HVAC 1
     Return Air Path Component Nodes,74,AIRLOOPHVAC:ZONEMIXER,AIR LOOP HVAC ZONE MIXER 1,NODE 488,NODE 104,AIR LOOP HVAC 1
     Return Air Path Component Nodes,75,AIRLOOPHVAC:ZONEMIXER,AIR LOOP HVAC ZONE MIXER 1,NODE 493,NODE 104,AIR LOOP HVAC 1
     Return Air Path Component Nodes,76,AIRLOOPHVAC:ZONEMIXER,AIR LOOP HVAC ZONE MIXER 1,NODE 498,NODE 104,AIR LOOP HVAC 1
     Return Air Path Component Nodes,77,AIRLOOPHVAC:ZONEMIXER,AIR LOOP HVAC ZONE MIXER 1,NODE 503,NODE 104,AIR LOOP HVAC 1
     Return Air Path Component Nodes,78,AIRLOOPHVAC:ZONEMIXER,AIR LOOP HVAC ZONE MIXER 1,NODE 508,NODE 104,AIR LOOP HVAC 1
     Return Air Path Component Nodes,79,AIRLOOPHVAC:ZONEMIXER,AIR LOOP HVAC ZONE MIXER 1,NODE 513,NODE 104,AIR LOOP HVAC 1
     Return Air Path Component Nodes,80,AIRLOOPHVAC:ZONEMIXER,AIR LOOP HVAC ZONE MIXER 1,NODE 518,NODE 104,AIR LOOP HVAC 1
     Return Air Path Component Nodes,81,AIRLOOPHVAC:ZONEMIXER,AIR LOOP HVAC ZONE MIXER 1,NODE 523,NODE 104,AIR LOOP HVAC 1
     Return Air Path Component Nodes,82,AIRLOOPHVAC:ZONEMIXER,AIR LOOP HVAC ZONE MIXER 1,NODE 528,NODE 104,AIR LOOP HVAC 1
     Return Air Path Component Nodes,83,AIRLOOPHVAC:ZONEMIXER,AIR LOOP HVAC ZONE MIXER 1,NODE 533,NODE 104,AIR LOOP HVAC 1
     Return Air Path Component Nodes,84,AIRLOOPHVAC:ZONEMIXER,AIR LOOP HVAC ZONE MIXER 1,NODE 538,NODE 104,AIR LOOP HVAC 1
     Return Air Path Component Nodes,85,AIRLOOPHVAC:ZONEMIXER,AIR LOOP HVAC ZONE MIXER 1,NODE 543,NODE 104,AIR LOOP HVAC 1
     Return Air Path Component Nodes,86,AIRLOOPHVAC:ZONEMIXER,AIR LOOP HVAC ZONE MIXER 1,NODE 548,NODE 104,AIR LOOP HVAC 1
     Return Air Path Component Nodes,87,AIRLOOPHVAC:ZONEMIXER,AIR LOOP HVAC ZONE MIXER 1,NODE 553,NODE 104,AIR LOOP HVAC 1
     Return Air Path Component Nodes,88,AIRLOOPHVAC:ZONEMIXER,AIR LOOP HVAC ZONE MIXER 1,NODE 558,NODE 104,AIR LOOP HVAC 1
     Return Air Path Component Nodes,89,AIRLOOPHVAC:ZONEMIXER,AIR LOOP HVAC ZONE MIXER 1,NODE 563,NODE 104,AIR LOOP HVAC 1
     Return Air Path Component Nodes,90,AIRLOOPHVAC:ZONEMIXER,AIR LOOP HVAC ZONE MIXER 1,NODE 568,NODE 104,AIR LOOP HVAC 1
     Return Air Path Component Nodes,91,AIRLOOPHVAC:ZONEMIXER,AIR LOOP HVAC ZONE MIXER 1,NODE 573,NODE 104,AIR LOOP HVAC 1
     Return Air Path Component Nodes,92,AIRLOOPHVAC:ZONEMIXER,AIR LOOP HVAC ZONE MIXER 1,NODE 578,NODE 104,AIR LOOP HVAC 1
     Return Air Path Component Nodes,93,AIRLOOPHVAC:ZONEMIXER,AIR LOOP HVAC ZONE MIXER 1,NODE 583,NODE 104,AIR LOOP HVAC 1
     Return Air Path Component Nodes,94,AIRLOOPHVAC:ZONEMIXER,AIR LOOP HVAC ZONE MIXER 1,NODE 588,NODE 104,AIR LOOP HVAC 1
     Return Air Path Component Nodes,95,AIRLOOPHVAC:ZONEMIXER,AIR LOOP HVAC ZONE MIXER 1,NODE 593,NODE 104,AIR LOOP HVAC 1
     Return Air Path Component Nodes,96,AIRLOOPHVAC:ZONEMIXER,AIR LOOP HVAC ZONE MIXER 1,NODE 598,NODE 104,AIR LOOP HVAC 1
     Return Air Path Component Nodes,97,AIRLOOPHVAC:ZONEMIXER,AIR LOOP HVAC ZONE MIXER 1,NODE 603,NODE 104,AIR LOOP HVAC 1
     Return Air Path Component Nodes,98,AIRLOOPHVAC:ZONEMIXER,AIR LOOP HVAC ZONE MIXER 1,NODE 608,NODE 104,AIR LOOP HVAC 1
     Return Air Path Component Nodes,99,AIRLOOPHVAC:ZONEMIXER,AIR LOOP HVAC ZONE MIXER 1,NODE 613,NODE 104,AIR LOOP HVAC 1
     Return Air Path Component Nodes,100,AIRLOOPHVAC:ZONEMIXER,AIR LOOP HVAC ZONE MIXER 1,NODE 618,NODE 104,AIR LOOP HVAC 1
! <#Nodes on Return Air Path>,<Number of Nodes>
! <Return Air Path Node>,<Node Type>,<Node Count>,<Node Name>,<AirLoopHVAC Name>
   #Nodes on Return Air Path,101
   Return Air Path Node,Outlet Node,1,NODE 104,AIR LOOP HVAC 1
   Return Air Path Node,Inlet Node,2,NODE 123,AIR LOOP HVAC 1
   Return Air Path Node,Inlet Node,3,NODE 128,AIR LOOP HVAC 1
   Return Air Path Node,Inlet Node,4,NODE 133,AIR LOOP HVAC 1
   Return Air Path Node,Inlet Node,5,NODE 138,AIR LOOP HVAC 1
   Return Air Path Node,Inlet Node,6,NODE 143,AIR LOOP HVAC 1
   Return Air Path Node,Inlet Node,7,NODE 148,AIR LOOP HVAC 1
   Return Air Path Node,Inlet Node,8,NODE 153,AIR LOOP HVAC 1
   Return Air Path Node,Inlet Node,9,NODE 158,AIR LOOP HVAC 1
   Return Air Path Node,Inlet Node,10,NODE 163,AIR LOOP HVAC 1
   Return Air Path Node,Inlet Node,11,NODE 168,AIR LOOP HVAC 1
   Return Air Path Node,Inlet Node,12,NODE 173,AIR LOOP HVAC 1
   Return Air Path Node,Inlet Node,13,NODE 178,AIR LOOP HVAC 1
   Return Air Path Node,Inlet Node,14,NODE 183,AIR LOOP HVAC 1
   Return Air Path Node,Inlet Node,15,NODE 188,AIR LOOP HVAC 1
   Return Air Path Node,Inlet Node,16,NODE 193,AIR LOOP HVAC 1
   Return Air Path Node,Inlet Node,17,NODE 198,AIR LOOP HVAC 1
   Return Air Path Node,Inlet Node,18,NODE 203,AIR LOOP HVAC 1
   Return Air Path Node,Inlet Node,19,NODE 208,AIR LOOP HVAC 1
   Return Air Path Node,Inlet Node,20,NODE 213,AIR LOOP HVAC 1
   Return Air Path Node,Inlet Node,21,NODE 218,AIR LOOP HVAC 1
   Return Air Path Node,Inlet Node,22,NODE 223,AIR LOOP HVAC 1
   Return Air Path Node,Inlet Node,23,NODE 228,AIR LOOP HVAC 1
   Return Air Path Node,Inlet Node,24,NODE 233,AIR LOOP HVAC 1
   Return Air Path Node,Inlet Node,25,NODE 238,AIR LOOP HVAC 1
   Return Air Path Node,Inlet Node,26,NODE 243,AIR LOOP HVAC 1
   Return Air Path Node,Inlet Node,27,NODE 248,AIR LOOP HVAC 1
   Return Air Path Node,Inlet Node,28,NODE 253,AIR LOOP HVAC 1
   Return Air Path Node,Inlet Node,29,NODE 258,AIR LOOP HVAC 1
   Return Air Path Node,Inlet Node,30,NODE 263,AIR LOOP HVAC 1
   Return Air Path Node,Inlet Node,31,NODE 268,AIR LOOP HVAC 1
   Return Air Path Node,Inlet Node,32,NODE 273,AIR LOOP HVAC 1
   Return Air Path Node,Inlet Node,33,NODE 278,AIR LOOP HVAC 1
   Return Air Path Node,Inlet Node,34,NODE 283,AIR LOOP HVAC 1
   Return Air Path Node,Inlet Node,35,NODE 288,AIR LOOP HVAC 1
   Return Air Path Node,Inlet Node,36,NODE 293,AIR LOOP HVAC 1
   Return Air Path Node,Inlet Node,37,NODE 298,AIR LOOP HVAC 1
   Return Air Path Node,Inlet Node,38,NODE 303,AIR LOOP HVAC 1
   Return Air Path Node,Inlet Node,39,NODE 308,AIR LOOP HVAC 1
   Return Air Path Node,Inlet Node,40,NODE 313,AIR LOOP HVAC 1
   Return Air Path Node,Inlet Node,41,NODE 318,AIR LOOP HVAC 1
   Return Air Path Node,Inlet Node,42,NODE 323,AIR LOOP HVAC 1
   Return Air Path Node,Inlet Node,43,NODE 328,AIR LOOP HVAC 1
   Return Air Path Node,Inlet Node,44,NODE 333,AIR LOOP HVAC 1
   Return Air Path Node,Inlet Node,45,NODE 338,AIR LOOP HVAC 1
   Return Air Path Node,Inlet Node,46,NODE 343,AIR LOOP HVAC 1
   Return Air Path Node,Inlet Node,47,NODE 348,AIR LOOP HVAC 1
   Return Air Path Node,Inlet Node,48,NODE 353,AIR LOOP HVAC 1
   Return Air Path Node,Inlet Node,49,NODE 358,AIR LOOP HVAC 1
   Return Air Path Node,Inlet Node,50,NODE 363,AIR LOOP HVAC 1
   Return Air Path Node,Inlet Node,51,NODE 368,AIR LOOP HVAC 1
   Return Air Path Node,Inlet Node,52,NODE 373,AIR LOOP HVAC 1
   Return Air Path Node,Inlet Node,53,NODE 378,AIR LOOP HVAC 1
   Return Air Path Node,Inlet Node,54,NODE 383,AIR LOOP HVAC 1
   Return Air Path Node,Inlet Node,55,NODE 388,AIR LOOP HVAC 1
   Return Air Path Node,Inlet Node,56,NODE 393,AIR LOOP HVAC 1
   Return Air Path Node,Inlet Node,57,NODE 398,AIR LOOP HVAC 1
   Return Air Path Node,Inlet Node,58,NODE 403,AIR LOOP HVAC 1
   Return Air Path Node,Inlet Node,59,NODE 408,AIR LOOP HVAC 1
   Return Air Path Node,Inlet Node,60,NODE 413,AIR LOOP HVAC 1
   Return Air Path Node,Inlet Node,61,NODE 418,AIR LOOP HVAC 1
   Return Air Path Node,Inlet Node,62,NODE 423,AIR LOOP HVAC 1
   Return Air Path Node,Inlet Node,63,NODE 428,AIR LOOP HVAC 1
   Return Air Path Node,Inlet Node,64,NODE 433,AIR LOOP HVAC 1
   Return Air Path Node,Inlet Node,65,NODE 438,AIR LOOP HVAC 1
   Return Air Path Node,Inlet Node,66,NODE 443,AIR LOOP HVAC 1
   Return Air Path Node,Inlet Node,67,NODE 448,AIR LOOP HVAC 1
   Return Air Path Node,Inlet Node,68,NODE 453,AIR LOOP HVAC 1
   Return Air Path Node,Inlet Node,69,NODE 458,AIR LOOP HVAC 1
   Return Air Path Node,Inlet Node,70,NODE 463,AIR LOOP HVAC 1
   Return Air Path Node,Inlet Node,71,NODE 468,AIR LOOP HVAC 1
   Return Air Path Node,Inlet Node,72,NODE 473,AIR LOOP HVAC 1
   Return Air Path Node,Inlet Node,73,NODE 478,AIR LOOP HVAC 1
   Return Air Path Node,Inlet Node,74,NODE 483,AIR LOOP HVAC 1
   Return Air Path Node,Inlet Node,75,NODE 488,AIR LOOP HVAC 1
   Return Air Path Node,Inlet Node,76,NODE 493,AIR LOOP HVAC 1
   Return Air Path Node,Inlet Node,77,NODE 498,AIR LOOP HVAC 1
   Return Air Path Node,Inlet Node,78,NODE 503,AIR LOOP HVAC 1
   Return Air Path Node,Inlet Node,79,NODE 508,AIR LOOP HVAC 1
   Return Air Path Node,Inlet Node,80,NODE 513,AIR LOOP HVAC 1
   Return Air Path Node,Inlet Node,81,NODE 518,AIR LOOP HVAC 1
   Return Air Path Node,Inlet Node,82,NODE 523,AIR LOOP HVAC 1
   Return Air Path Node,Inlet Node,83,NODE 528,AIR LOOP HVAC 1
   Return Air Path Node,Inlet Node,84,NODE 533,AIR LOOP HVAC 1
   Return Air Path Node,Inlet Node,85,NODE 538,AIR LOOP HVAC 1
   Return Air Path Node,Inlet Node,86,NODE 543,AIR LOOP HVAC 1
   Return Air Path Node,Inlet Node,87,NODE 548,AIR LOOP HVAC 1
   Return Air Path Node,Inlet Node,88,NODE 553,AIR LOOP HVAC 1
   Return Air Path Node,Inlet Node,89,NODE 558,AIR LOOP HVAC 1
   Return Air Path Node,Inlet Node,90,NODE 563,AIR LOOP HVAC 1
   Return Air Path Node,Inlet Node,91,NODE 568,AIR LOOP HVAC 1
   Return Air Path Node,Inlet Node,92,NODE 573,AIR LOOP HVAC 1
   Return Air Path Node,Inlet Node,93,NODE 578,AIR LOOP HVAC 1
   Return Air Path Node,Inlet Node,94,NODE 583,AIR LOOP HVAC 1
   Return Air Path Node,Inlet Node,95,NODE 588,AIR LOOP HVAC 1
   Return Air Path Node,Inlet Node,96,NODE 593,AIR LOOP HVAC 1
   Return Air Path Node,Inlet Node,97,NODE 598,AIR LOOP HVAC 1
   Return Air Path Node,Inlet Node,98,NODE 603,AIR LOOP HVAC 1
   Return Air Path Node,Inlet Node,99,NODE 608,AIR LOOP HVAC 1
   Return Air Path Node,Inlet Node,100,NODE 613,AIR LOOP HVAC 1
   Return Air Path Node,Inlet Node,101,NODE 618,AIR LOOP HVAC 1
! ===============================================================
! #Outdoor Air Nodes,<Number of Outdoor Air Nodes>
 #Outdoor Air Nodes,1                   
! <Outdoor Air Node>,<NodeNumber>,<Node Name>
 Outdoor Air Node,322,NODE 106
! ===============================================================
! <#Component Sets>,<Number of Component Sets>
 #Component Sets,314
! <Component Set>,<Component Set Count>,<Parent Object Type>,<Parent Object Name>,<Component Type>,<Component Name>,<Inlet Node ID>,<Outlet Node ID>,<Description>
 Component Set,1,BRANCH,BRANCH {F67D2460-D313-4DE6-B1C6-502E82235AC6},AIRLOOPHVAC:OUTDOORAIRSYSTEM,AIR LOOP HVAC OUTDOOR AIR SYSTEM 1,NODE 101,NODE 108,Air Nodes
 Component Set,2,BRANCH,BRANCH {F67D2460-D313-4DE6-B1C6-502E82235AC6},COILSYSTEM:COOLING:DX,COIL COOLING DX TWO SPEED 1 COILSYSTEM,NODE 108,NODE 109,Air Nodes
 Component Set,3,BRANCH,BRANCH {F67D2460-D313-4DE6-B1C6-502E82235AC6},COIL:HEATING:WATER,COIL HEATING WATER 1,NODE 109,NODE 110,Air Nodes
 Component Set,4,BRANCH,BRANCH {F67D2460-D313-4DE6-B1C6-502E82235AC6},FAN:VARIABLEVOLUME,FAN VARIABLE VOLUME 1,NODE 110,NODE 102,Air Nodes
 Component Set,5,BRANCH,PLANT LOOP 1 SUPPLY INLET BRANCH,PUMP:VARIABLESPEED,PUMP VARIABLE SPEED 1,NODE 111,NODE 117,Water Nodes
 Component Set,6,BRANCH,PLANT LOOP 1 SUPPLY BRANCH 1,BOILER:HOTWATER,BOILER HOT WATER 1,NODE 113,NODE 118,Hot Water Nodes
 Component Set,7,BRANCH,PLANT LOOP 1 SUPPLY BRANCH 2,PIPE:ADIABATIC,PIPE ADIABATIC 1,NODE 119,NODE 120,Pipe Nodes
 Component Set,8,BRANCH,PLANT LOOP 1 SUPPLY OUTLET BRANCH,PIPE:ADIABATIC,PIPE ADIABATIC 2,NODE 121,NODE 112,Pipe Nodes
 Component Set,9,BRANCH,PLANT LOOP 1 DEMAND INLET BRANCH,PIPE:ADIABATIC,PLANT LOOP 1 DEMAND INLET PIPE,NODE 114,PLANT LOOP 1 DEMAND INLET PIPE NODE,Pipe Nodes
 Component Set,10,BRANCH,PLANT LOOP 1 DEMAND BRANCH 1,COIL:HEATING:WATER,COIL HEATING WATER 1,NODE 116,NODE 122,Water Nodes
 Component Set,11,BRANCH,PLANT LOOP 1 DEMAND BRANCH 2,COIL:HEATING:WATER,COIL HEATING WATER 3,NODE 125,NODE 126,Water Nodes
 Component Set,12,BRANCH,PLANT LOOP 1 DEMAND BRANCH 3,COIL:HEATING:WATER,COIL HEATING WATER 4,NODE 130,NODE 131,Water Nodes
 Component Set,13,BRANCH,PLANT LOOP 1 DEMAND BRANCH 4,COIL:HEATING:WATER,COIL HEATING WATER 5,NODE 135,NODE 136,Water Nodes
 Component Set,14,BRANCH,PLANT LOOP 1 DEMAND BRANCH 5,COIL:HEATING:WATER,COIL HEATING WATER 6,NODE 140,NODE 141,Water Nodes
[...]
 Non-Parent Node Connection,NODE 484,AIRTERMINAL:SINGLEDUCT:VAV:REHEAT,AIR TERMINAL SINGLE DUCT VAV REHEAT 74,Inlet,1
 Non-Parent Node Connection,AIR TERMINAL SINGLE DUCT VAV REHEAT 75 DAMPER OUTLET,AIRTERMINAL:SINGLEDUCT:VAV:REHEAT,AIR TERMINAL SINGLE DUCT VAV REHEAT 75,Outlet,1
 Non-Parent Node Connection,NODE 489,AIRTERMINAL:SINGLEDUCT:VAV:REHEAT,AIR TERMINAL SINGLE DUCT VAV REHEAT 75,Inlet,1
 Non-Parent Node Connection,AIR TERMINAL SINGLE DUCT VAV REHEAT 76 DAMPER OUTLET,AIRTERMINAL:SINGLEDUCT:VAV:REHEAT,AIR TERMINAL SINGLE DUCT VAV REHEAT 76,Outlet,1
 Non-Parent Node Connection,NODE 494,AIRTERMINAL:SINGLEDUCT:VAV:REHEAT,AIR TERMINAL SINGLE DUCT VAV REHEAT 76,Inlet,1
 Non-Parent Node Connection,AIR TERMINAL SINGLE DUCT VAV REHEAT 77 DAMPER OUTLET,AIRTERMINAL:SINGLEDUCT:VAV:REHEAT,AIR TERMINAL SINGLE DUCT VAV REHEAT 77,Outlet,1
 Non-Parent Node Connection,NODE 499,AIRTERMINAL:SINGLEDUCT:VAV:REHEAT,AIR TERMINAL SINGLE DUCT VAV REHEAT 77,Inlet,1
 Non-Parent Node Connection,AIR TERMINAL SINGLE DUCT VAV REHEAT 78 DAMPER OUTLET,AIRTERMINAL:SINGLEDUCT:VAV:REHEAT,AIR TERMINAL SINGLE DUCT VAV REHEAT 78,Outlet,1
 Non-Parent Node Connection,NODE 504,AIRTERMINAL:SINGLEDUCT:VAV:REHEAT,AIR TERMINAL SINGLE DUCT VAV REHEAT 78,Inlet,1
 Non-Parent Node Connection,AIR TERMINAL SINGLE DUCT VAV REHEAT 79 DAMPER OUTLET,AIRTERMINAL:SINGLEDUCT:VAV:REHEAT,AIR TERMINAL SINGLE DUCT VAV REHEAT 79,Outlet,1
 Non-Parent Node Connection,NODE 509,AIRTERMINAL:SINGLEDUCT:VAV:REHEAT,AIR TERMINAL SINGLE DUCT VAV REHEAT 79,Inlet,1
 Non-Parent Node Connection,AIR TERMINAL SINGLE DUCT VAV REHEAT 80 DAMPER OUTLET,AIRTERMINAL:SINGLEDUCT:VAV:REHEAT,AIR TERMINAL SINGLE DUCT VAV REHEAT 80,Outlet,1
 Non-Parent Node Connection,NODE 514,AIRTERMINAL:SINGLEDUCT:VAV:REHEAT,AIR TERMINAL SINGLE DUCT VAV REHEAT 80,Inlet,1
 Non-Parent Node Connection,AIR TERMINAL SINGLE DUCT VAV REHEAT 81 DAMPER OUTLET,AIRTERMINAL:SINGLEDUCT:VAV:REHEAT,AIR TERMINAL SINGLE DUCT VAV REHEAT 81,Outlet,1
 Non-Parent Node Connection,NODE 519,AIRTERMINAL:SINGLEDUCT:VAV:REHEAT,AIR TERMINAL SINGLE DUCT VAV REHEAT 81,Inlet,1
 Non-Parent Node Connection,AIR TERMINAL SINGLE DUCT VAV REHEAT 82 DAMPER OUTLET,AIRTERMINAL:SINGLEDUCT:VAV:REHEAT,AIR TERMINAL SINGLE DUCT VAV REHEAT 82,Outlet,1
 Non-Parent Node Connection,NODE 524,AIRTERMINAL:SINGLEDUCT:VAV:REHEAT,AIR TERMINAL SINGLE DUCT VAV REHEAT 82,Inlet,1
 Non-Parent Node Connection,AIR TERMINAL SINGLE DUCT VAV REHEAT 83 DAMPER OUTLET,AIRTERMINAL:SINGLEDUCT:VAV:REHEAT,AIR TERMINAL SINGLE DUCT VAV REHEAT 83,Outlet,1
 Non-Parent Node Connection,NODE 529,AIRTERMINAL:SINGLEDUCT:VAV:REHEAT,AIR TERMINAL SINGLE DUCT VAV REHEAT 83,Inlet,1
 Non-Parent Node Connection,AIR TERMINAL SINGLE DUCT VAV REHEAT 84 DAMPER OUTLET,AIRTERMINAL:SINGLEDUCT:VAV:REHEAT,AIR TERMINAL SINGLE DUCT VAV REHEAT 84,Outlet,1
 Non-Parent Node Connection,NODE 534,AIRTERMINAL:SINGLEDUCT:VAV:REHEAT,AIR TERMINAL SINGLE DUCT VAV REHEAT 84,Inlet,1
 Non-Parent Node Connection,AIR TERMINAL SINGLE DUCT VAV REHEAT 85 DAMPER OUTLET,AIRTERMINAL:SINGLEDUCT:VAV:REHEAT,AIR TERMINAL SINGLE DUCT VAV REHEAT 85,Outlet,1
 Non-Parent Node Connection,NODE 539,AIRTERMINAL:SINGLEDUCT:VAV:REHEAT,AIR TERMINAL SINGLE DUCT VAV REHEAT 85,Inlet,1
 Non-Parent Node Connection,AIR TERMINAL SINGLE DUCT VAV REHEAT 86 DAMPER OUTLET,AIRTERMINAL:SINGLEDUCT:VAV:REHEAT,AIR TERMINAL SINGLE DUCT VAV REHEAT 86,Outlet,1
 Non-Parent Node Connection,NODE 544,AIRTERMINAL:SINGLEDUCT:VAV:REHEAT,AIR TERMINAL SINGLE DUCT VAV REHEAT 86,Inlet,1
 Non-Parent Node Connection,AIR TERMINAL SINGLE DUCT VAV REHEAT 87 DAMPER OUTLET,AIRTERMINAL:SINGLEDUCT:VAV:REHEAT,AIR TERMINAL SINGLE DUCT VAV REHEAT 87,Outlet,1
 Non-Parent Node Connection,NODE 549,AIRTERMINAL:SINGLEDUCT:VAV:REHEAT,AIR TERMINAL SINGLE DUCT VAV REHEAT 87,Inlet,1
 Non-Parent Node Connection,AIR TERMINAL SINGLE DUCT VAV REHEAT 88 DAMPER OUTLET,AIRTERMINAL:SINGLEDUCT:VAV:REHEAT,AIR TERMINAL SINGLE DUCT VAV REHEAT 88,Outlet,1
 Non-Parent Node Connection,NODE 554,AIRTERMINAL:SINGLEDUCT:VAV:REHEAT,AIR TERMINAL SINGLE DUCT VAV REHEAT 88,Inlet,1
 Non-Parent Node Connection,AIR TERMINAL SINGLE DUCT VAV REHEAT 89 DAMPER OUTLET,AIRTERMINAL:SINGLEDUCT:VAV:REHEAT,AIR TERMINAL SINGLE DUCT VAV REHEAT 89,Outlet,1
 Non-Parent Node Connection,NODE 559,AIRTERMINAL:SINGLEDUCT:VAV:REHEAT,AIR TERMINAL SINGLE DUCT VAV REHEAT 89,Inlet,1
 Non-Parent Node Connection,AIR TERMINAL SINGLE DUCT VAV REHEAT 90 DAMPER OUTLET,AIRTERMINAL:SINGLEDUCT:VAV:REHEAT,AIR TERMINAL SINGLE DUCT VAV REHEAT 90,Outlet,1
 Non-Parent Node Connection,NODE 564,AIRTERMINAL:SINGLEDUCT:VAV:REHEAT,AIR TERMINAL SINGLE DUCT VAV REHEAT 90,Inlet,1
 Non-Parent Node Connection,AIR TERMINAL SINGLE DUCT VAV REHEAT 91 DAMPER OUTLET,AIRTERMINAL:SINGLEDUCT:VAV:REHEAT,AIR TERMINAL SINGLE DUCT VAV REHEAT 91,Outlet,1
 Non-Parent Node Connection,NODE 569,AIRTERMINAL:SINGLEDUCT:VAV:REHEAT,AIR TERMINAL SINGLE DUCT VAV REHEAT 91,Inlet,1
 Non-Parent Node Connection,AIR TERMINAL SINGLE DUCT VAV REHEAT 92 DAMPER OUTLET,AIRTERMINAL:SINGLEDUCT:VAV:REHEAT,AIR TERMINAL SINGLE DUCT VAV REHEAT 92,Outlet,1
 Non-Parent Node Connection,NODE 574,AIRTERMINAL:SINGLEDUCT:VAV:REHEAT,AIR TERMINAL SINGLE DUCT VAV REHEAT 92,Inlet,1
 Non-Parent Node Connection,AIR TERMINAL SINGLE DUCT VAV REHEAT 93 DAMPER OUTLET,AIRTERMINAL:SINGLEDUCT:VAV:REHEAT,AIR TERMINAL SINGLE DUCT VAV REHEAT 93,Outlet,1
 Non-Parent Node Connection,NODE 579,AIRTERMINAL:SINGLEDUCT:VAV:REHEAT,AIR TERMINAL SINGLE DUCT VAV REHEAT 93,Inlet,1
 Non-Parent Node Connection,AIR TERMINAL SINGLE DUCT VAV REHEAT 94 DAMPER OUTLET,AIRTERMINAL:SINGLEDUCT:VAV:REHEAT,AIR TERMINAL SINGLE DUCT VAV REHEAT 94,Outlet,1
 Non-Parent Node Connection,NODE 584,AIRTERMINAL:SINGLEDUCT:VAV:REHEAT,AIR TERMINAL SINGLE DUCT VAV REHEAT 94,Inlet,1
 Non-Parent Node Connection,AIR TERMINAL SINGLE DUCT VAV REHEAT 95 DAMPER OUTLET,AIRTERMINAL:SINGLEDUCT:VAV:REHEAT,AIR TERMINAL SINGLE DUCT VAV REHEAT 95,Outlet,1
 Non-Parent Node Connection,NODE 589,AIRTERMINAL:SINGLEDUCT:VAV:REHEAT,AIR TERMINAL SINGLE DUCT VAV REHEAT 95,Inlet,1
 Non-Parent Node Connection,AIR TERMINAL SINGLE DUCT VAV REHEAT 96 DAMPER OUTLET,AIRTERMINAL:SINGLEDUCT:VAV:REHEAT,AIR TERMINAL SINGLE DUCT VAV REHEAT 96,Outlet,1
 Non-Parent Node Connection,NODE 594,AIRTERMINAL:SINGLEDUCT:VAV:REHEAT,AIR TERMINAL SINGLE DUCT VAV REHEAT 96,Inlet,1
 Non-Parent Node Connection,AIR TERMINAL SINGLE DUCT VAV REHEAT 97 DAMPER OUTLET,AIRTERMINAL:SINGLEDUCT:VAV:REHEAT,AIR TERMINAL SINGLE DUCT VAV REHEAT 97,Outlet,1
 Non-Parent Node Connection,NODE 599,AIRTERMINAL:SINGLEDUCT:VAV:REHEAT,AIR TERMINAL SINGLE DUCT VAV REHEAT 97,Inlet,1
 Non-Parent Node Connection,AIR TERMINAL SINGLE DUCT VAV REHEAT 98 DAMPER OUTLET,AIRTERMINAL:SINGLEDUCT:VAV:REHEAT,AIR TERMINAL SINGLE DUCT VAV REHEAT 98,Outlet,1
 Non-Parent Node Connection,NODE 604,AIRTERMINAL:SINGLEDUCT:VAV:REHEAT,AIR TERMINAL SINGLE DUCT VAV REHEAT 98,Inlet,1
 Non-Parent Node Connection,AIR TERMINAL SINGLE DUCT VAV REHEAT 99 DAMPER OUTLET,AIRTERMINAL:SINGLEDUCT:VAV:REHEAT,AIR TERMINAL SINGLE DUCT VAV REHEAT 99,Outlet,1
 Non-Parent Node Connection,NODE 609,AIRTERMINAL:SINGLEDUCT:VAV:REHEAT,AIR TERMINAL SINGLE DUCT VAV REHEAT 99,Inlet,1
 Non-Parent Node Connection,AIR TERMINAL SINGLE DUCT VAV REHEAT 100 DAMPER OUTLET,AIRTERMINAL:SINGLEDUCT:VAV:REHEAT,AIR TERMINAL SINGLE DUCT VAV REHEAT 100,Outlet,1
 Non-Parent Node Connection,NODE 614,AIRTERMINAL:SINGLEDUCT:VAV:REHEAT,AIR TERMINAL SINGLE DUCT VAV REHEAT 100,Inlet,1
 Non-Parent Node Connection,AIR TERMINAL SINGLE DUCT VAV REHEAT 101 DAMPER OUTLET,AIRTERMINAL:SINGLEDUCT:VAV:REHEAT,AIR TERMINAL SINGLE DUCT VAV REHEAT 101,Outlet,1
 Non-Parent Node Connection,NODE 619,AIRTERMINAL:SINGLEDUCT:VAV:REHEAT,AIR TERMINAL SINGLE DUCT VAV REHEAT 101,Inlet,1
 Non-Parent Node Connection,NODE 104,AIRLOOPHVAC:ZONEMIXER,AIR LOOP HVAC ZONE MIXER 1,Outlet,1
 Non-Parent Node Connection,NODE 123,AIRLOOPHVAC:ZONEMIXER,AIR LOOP HVAC ZONE MIXER 1,Inlet,1
 Non-Parent Node Connection,NODE 128,AIRLOOPHVAC:ZONEMIXER,AIR LOOP HVAC ZONE MIXER 1,Inlet,1
 Non-Parent Node Connection,NODE 133,AIRLOOPHVAC:ZONEMIXER,AIR LOOP HVAC ZONE MIXER 1,Inlet,1
 Non-Parent Node Connection,NODE 138,AIRLOOPHVAC:ZONEMIXER,AIR LOOP HVAC ZONE MIXER 1,Inlet,1
 Non-Parent Node Connection,NODE 143,AIRLOOPHVAC:ZONEMIXER,AIR LOOP HVAC ZONE MIXER 1,Inlet,1
 Non-Parent Node Connection,NODE 148,AIRLOOPHVAC:ZONEMIXER,AIR LOOP HVAC ZONE MIXER 1,Inlet,1
 Non-Parent Node Connection,NODE 153,AIRLOOPHVAC:ZONEMIXER,AIR LOOP HVAC ZONE MIXER 1,Inlet,1
 Non-Parent Node Connection,NODE 158,AIRLOOPHVAC:ZONEMIXER,AIR LOOP HVAC ZONE MIXER 1,Inlet,1
 Non-Parent Node Connection,NODE 163,AIRLOOPHVAC:ZONEMIXER,AIR LOOP HVAC ZONE MIXER 1,Inlet,1
 Non-Parent Node Connection,NODE 168,AIRLOOPHVAC:ZONEMIXER,AIR LOOP HVAC ZONE MIXER 1,Inlet,1
 Non-Parent Node Connection,NODE 173,AIRLOOPHVAC:ZONEMIXER,AIR LOOP HVAC ZONE MIXER 1,Inlet,1
 Non-Parent Node Connection,NODE 178,AIRLOOPHVAC:ZONEMIXER,AIR LOOP HVAC ZONE MIXER 1,Inlet,1
 Non-Parent Node Connection,NODE 183,AIRLOOPHVAC:ZONEMIXER,AIR LOOP HVAC ZONE MIXER 1,Inlet,1
 Non-Parent Node Connection,NODE 188,AIRLOOPHVAC:ZONEMIXER,AIR LOOP HVAC ZONE MIXER 1,Inlet,1
 Non-Parent Node Connection,NODE 193,AIRLOOPHVAC:ZONEMIXER,AIR LOOP HVAC ZONE MIXER 1,Inlet,1
 Non-Parent Node Connection,NODE 198,AIRLOOPHVAC:ZONEMIXER,AIR LOOP HVAC ZONE MIXER 1,Inlet,1
 Non-Parent Node Connection,NODE 203,AIRLOOPHVAC:ZONEMIXER,AIR LOOP HVAC ZONE MIXER 1,Inlet,1
 Non-Parent Node Connection,NODE 208,AIRLOOPHVAC:ZONEMIXER,AIR LOOP HVAC ZONE MIXER 1,Inlet,1
 Non-Parent Node Connection,NODE 213,AIRLOOPHVAC:ZONEMIXER,AIR LOOP HVAC ZONE MIXER 1,Inlet,1
 Non-Parent Node Connection,NODE 218,AIRLOOPHVAC:ZONEMIXER,AIR LOOP HVAC ZONE MIXER 1,Inlet,1
 Non-Parent Node Connection,NODE 223,AIRLOOPHVAC:ZONEMIXER,AIR LOOP HVAC ZONE MIXER 1,Inlet,1
 Non-Parent Node Connection,NODE 228,AIRLOOPHVAC:ZONEMIXER,AIR LOOP HVAC ZONE MIXER 1,Inlet,1
 Non-Parent Node Connection,NODE 233,AIRLOOPHVAC:ZONEMIXER,AIR LOOP HVAC ZONE MIXER 1,Inlet,1
 Non-Parent Node Connection,NODE 238,AIRLOOPHVAC:ZONEMIXER,AIR LOOP HVAC ZONE MIXER 1,Inlet,1
 Non-Parent Node Connection,NODE 243,AIRLOOPHVAC:ZONEMIXER,AIR LOOP HVAC ZONE MIXER 1,Inlet,1
 Non-Parent Node Connection,NODE 248,AIRLOOPHVAC:ZONEMIXER,AIR LOOP HVAC ZONE MIXER 1,Inlet,1
 Non-Parent Node Connection,NODE 253,AIRLOOPHVAC:ZONEMIXER,AIR LOOP HVAC ZONE MIXER 1,Inlet,1
 Non-Parent Node Connection,NODE 258,AIRLOOPHVAC:ZONEMIXER,AIR LOOP HVAC ZONE MIXER 1,Inlet,1
 Non-Parent Node Connection,NODE 263,AIRLOOPHVAC:ZONEMIXER,AIR LOOP HVAC ZONE MIXER 1,Inlet,1
 Non-Parent Node Connection,NODE 268,AIRLOOPHVAC:ZONEMIXER,AIR LOOP HVAC ZONE MIXER 1,Inlet,1
 Non-Parent Node Connection,NODE 273,AIRLOOPHVAC:ZONEMIXER,AIR LOOP HVAC ZONE MIXER 1,Inlet,1
 Non-Parent Node Connection,NODE 278,AIRLOOPHVAC:ZONEMIXER,AIR LOOP HVAC ZONE MIXER 1,Inlet,1
 Non-Parent Node Connection,NODE 283,AIRLOOPHVAC:ZONEMIXER,AIR LOOP HVAC ZONE MIXER 1,Inlet,1
 Non-Parent Node Connection,NODE 288,AIRLOOPHVAC:ZONEMIXER,AIR LOOP HVAC ZONE MIXER 1,Inlet,1
 Non-Parent Node Connection,NODE 293,AIRLOOPHVAC:ZONEMIXER,AIR LOOP HVAC ZONE MIXER 1,Inlet,1
 Non-Parent Node Connection,NODE 298,AIRLOOPHVAC:ZONEMIXER,AIR LOOP HVAC ZONE MIXER 1,Inlet,1
 Non-Parent Node Connection,NODE 303,AIRLOOPHVAC:ZONEMIXER,AIR LOOP HVAC ZONE MIXER 1,Inlet,1
 Non-Parent Node Connection,NODE 308,AIRLOOPHVAC:ZONEMIXER,AIR LOOP HVAC ZONE MIXER 1,Inlet,1
 Non-Parent Node Connection,NODE 313,AIRLOOPHVAC:ZONEMIXER,AIR LOOP HVAC ZONE MIXER 1,Inlet,1
 Non-Parent Node Connection,NODE 318,AIRLOOPHVAC:ZONEMIXER,AIR LOOP HVAC ZONE MIXER 1,Inlet,1
 Non-Parent Node Connection,NODE 323,AIRLOOPHVAC:ZONEMIXER,AIR LOOP HVAC ZONE MIXER 1,Inlet,1
 Non-Parent Node Connection,NODE 328,AIRLOOPHVAC:ZONEMIXER,AIR LOOP HVAC ZONE MIXER 1,Inlet,1
 Non-Parent Node Connection,NODE 333,AIRLOOPHVAC:ZONEMIXER,AIR LOOP HVAC ZONE MIXER 1,Inlet,1
 Non-Parent Node Connection,NODE 338,AIRLOOPHVAC:ZONEMIXER,AIR LOOP HVAC ZONE MIXER 1,Inlet,1
 Non-Parent Node Connection,NODE 343,AIRLOOPHVAC:ZONEMIXER,AIR LOOP HVAC ZONE MIXER 1,Inlet,1
 Non-Parent Node Connection,NODE 348,AIRLOOPHVAC:ZONEMIXER,AIR LOOP HVAC ZONE MIXER 1,Inlet,1
 Non-Parent Node Connection,NODE 353,AIRLOOPHVAC:ZONEMIXER,AIR LOOP HVAC ZONE MIXER 1,Inlet,1
 Non-Parent Node Connection,NODE 358,AIRLOOPHVAC:ZONEMIXER,AIR LOOP HVAC ZONE MIXER 1,Inlet,1
 Non-Parent Node Connection,NODE 363,AIRLOOPHVAC:ZONEMIXER,AIR LOOP HVAC ZONE MIXER 1,Inlet,1
 Non-Parent Node Connection,NODE 368,AIRLOOPHVAC:ZONEMIXER,AIR LOOP HVAC ZONE MIXER 1,Inlet,1
 Non-Parent Node Connection,NODE 373,AIRLOOPHVAC:ZONEMIXER,AIR LOOP HVAC ZONE MIXER 1,Inlet,1
 Non-Parent Node Connection,NODE 378,AIRLOOPHVAC:ZONEMIXER,AIR LOOP HVAC ZONE MIXER 1,Inlet,1
 Non-Parent Node Connection,NODE 383,AIRLOOPHVAC:ZONEMIXER,AIR LOOP HVAC ZONE MIXER 1,Inlet,1
 Non-Parent Node Connection,NODE 388,AIRLOOPHVAC:ZONEMIXER,AIR LOOP HVAC ZONE MIXER 1,Inlet,1
 Non-Parent Node Connection,NODE 393,AIRLOOPHVAC:ZONEMIXER,AIR LOOP HVAC ZONE MIXER 1,Inlet,1
 Non-Parent Node Connection,NODE 398,AIRLOOPHVAC:ZONEMIXER,AIR LOOP HVAC ZONE MIXER 1,Inlet,1
 Non-Parent Node Connection,NODE 403,AIRLOOPHVAC:ZONEMIXER,AIR LOOP HVAC ZONE MIXER 1,Inlet,1
 Non-Parent Node Connection,NODE 408,AIRLOOPHVAC:ZONEMIXER,AIR LOOP HVAC ZONE MIXER 1,Inlet,1
 Non-Parent Node Connection,NODE 413,AIRLOOPHVAC:ZONEMIXER,AIR LOOP HVAC ZONE MIXER 1,Inlet,1
 Non-Parent Node Connection,NODE 418,AIRLOOPHVAC:ZONEMIXER,AIR LOOP HVAC ZONE MIXER 1,Inlet,1
 Non-Parent Node Connection,NODE 423,AIRLOOPHVAC:ZONEMIXER,AIR LOOP HVAC ZONE MIXER 1,Inlet,1
 Non-Parent Node Connection,NODE 428,AIRLOOPHVAC:ZONEMIXER,AIR LOOP HVAC ZONE MIXER 1,Inlet,1
 Non-Parent Node Connection,NODE 433,AIRLOOPHVAC:ZONEMIXER,AIR LOOP HVAC ZONE MIXER 1,Inlet,1
 Non-Parent Node Connection,NODE 438,AIRLOOPHVAC:ZONEMIXER,AIR LOOP HVAC ZONE MIXER 1,Inlet,1
 Non-Parent Node Connection,NODE 443,AIRLOOPHVAC:ZONEMIXER,AIR LOOP HVAC ZONE MIXER 1,Inlet,1
 Non-Parent Node Connection,NODE 448,AIRLOOPHVAC:ZONEMIXER,AIR LOOP HVAC ZONE MIXER 1,Inlet,1
 Non-Parent Node Connection,NODE 453,AIRLOOPHVAC:ZONEMIXER,AIR LOOP HVAC ZONE MIXER 1,Inlet,1
 Non-Parent Node Connection,NODE 458,AIRLOOPHVAC:ZONEMIXER,AIR LOOP HVAC ZONE MIXER 1,Inlet,1
 Non-Parent Node Connection,NODE 463,AIRLOOPHVAC:ZONEMIXER,AIR LOOP HVAC ZONE MIXER 1,Inlet,1
 Non-Parent Node Connection,NODE 468,AIRLOOPHVAC:ZONEMIXER,AIR LOOP HVAC ZONE MIXER 1,Inlet,1
 Non-Parent Node Connection,NODE 473,AIRLOOPHVAC:ZONEMIXER,AIR LOOP HVAC ZONE MIXER 1,Inlet,1
 Non-Parent Node Connection,NODE 478,AIRLOOPHVAC:ZONEMIXER,AIR LOOP HVAC ZONE MIXER 1,Inlet,1
 Non-Parent Node Connection,NODE 483,AIRLOOPHVAC:ZONEMIXER,AIR LOOP HVAC ZONE MIXER 1,Inlet,1
 Non-Parent Node Connection,NODE 488,AIRLOOPHVAC:ZONEMIXER,AIR LOOP HVAC ZONE MIXER 1,Inlet,1
 Non-Parent Node Connection,NODE 493,AIRLOOPHVAC:ZONEMIXER,AIR LOOP HVAC ZONE MIXER 1,Inlet,1
 Non-Parent Node Connection,NODE 498,AIRLOOPHVAC:ZONEMIXER,AIR LOOP HVAC ZONE MIXER 1,Inlet,1
 Non-Parent Node Connection,NODE 503,AIRLOOPHVAC:ZONEMIXER,AIR LOOP HVAC ZONE MIXER 1,Inlet,1
 Non-Parent Node Connection,NODE 508,AIRLOOPHVAC:ZONEMIXER,AIR LOOP HVAC ZONE MIXER 1,Inlet,1
 Non-Parent Node Connection,NODE 513,AIRLOOPHVAC:ZONEMIXER,AIR LOOP HVAC ZONE MIXER 1,Inlet,1
 Non-Parent Node Connection,NODE 518,AIRLOOPHVAC:ZONEMIXER,AIR LOOP HVAC ZONE MIXER 1,Inlet,1
 Non-Parent Node Connection,NODE 523,AIRLOOPHVAC:ZONEMIXER,AIR LOOP HVAC ZONE MIXER 1,Inlet,1
 Non-Parent Node Connection,NODE 528,AIRLOOPHVAC:ZONEMIXER,AIR LOOP HVAC ZONE MIXER 1,Inlet,1
 Non-Parent Node Connection,NODE 533,AIRLOOPHVAC:ZONEMIXER,AIR LOOP HVAC ZONE MIXER 1,Inlet,1
 Non-Parent Node Connection,NODE 538,AIRLOOPHVAC:ZONEMIXER,AIR LOOP HVAC ZONE MIXER 1,Inlet,1
 Non-Parent Node Connection,NODE 543,AIRLOOPHVAC:ZONEMIXER,AIR LOOP HVAC ZONE MIXER 1,Inlet,1
 Non-Parent Node Connection,NODE 548,AIRLOOPHVAC:ZONEMIXER,AIR LOOP HVAC ZONE MIXER 1,Inlet,1
 Non-Parent Node Connection,NODE 553,AIRLOOPHVAC:ZONEMIXER,AIR LOOP HVAC ZONE MIXER 1,Inlet,1
 Non-Parent Node Connection,NODE 558,AIRLOOPHVAC:ZONEMIXER,AIR LOOP HVAC ZONE MIXER 1,Inlet,1
 Non-Parent Node Connection,NODE 563,AIRLOOPHVAC:ZONEMIXER,AIR LOOP HVAC ZONE MIXER 1,Inlet,1
 Non-Parent Node Connection,NODE 568,AIRLOOPHVAC:ZONEMIXER,AIR LOOP HVAC ZONE MIXER 1,Inlet,1
 Non-Parent Node Connection,NODE 573,AIRLOOPHVAC:ZONEMIXER,AIR LOOP HVAC ZONE MIXER 1,Inlet,1
 Non-Parent Node Connection,NODE 578,AIRLOOPHVAC:ZONEMIXER,AIR LOOP HVAC ZONE MIXER 1,Inlet,1
 Non-Parent Node Connection,NODE 583,AIRLOOPHVAC:ZONEMIXER,AIR LOOP HVAC ZONE MIXER 1,Inlet,1
 Non-Parent Node Connection,NODE 588,AIRLOOPHVAC:ZONEMIXER,AIR LOOP HVAC ZONE MIXER 1,Inlet,1
 Non-Parent Node Connection,NODE 593,AIRLOOPHVAC:ZONEMIXER,AIR LOOP HVAC ZONE MIXER 1,Inlet,1
 Non-Parent Node Connection,NODE 598,AIRLOOPHVAC:ZONEMIXER,AIR LOOP HVAC ZONE MIXER 1,Inlet,1
 Non-Parent Node Connection,NODE 603,AIRLOOPHVAC:ZONEMIXER,AIR LOOP HVAC ZONE MIXER 1,Inlet,1
 Non-Parent Node Connection,NODE 608,AIRLOOPHVAC:ZONEMIXER,AIR LOOP HVAC ZONE MIXER 1,Inlet,1
 Non-Parent Node Connection,NODE 613,AIRLOOPHVAC:ZONEMIXER,AIR LOOP HVAC ZONE MIXER 1,Inlet,1
 Non-Parent Node Connection,NODE 618,AIRLOOPHVAC:ZONEMIXER,AIR LOOP HVAC ZONE MIXER 1,Inlet,1
 Non-Parent Node Connection,NODE 108,OUTDOORAIR:MIXER,OUTDOORAIR:MIXER {8BADC005-2FB5-4186-AE4B-BE8FB4826366},Outlet,1
 Non-Parent Node Connection,NODE 106,OUTDOORAIR:MIXER,OUTDOORAIR:MIXER {8BADC005-2FB5-4186-AE4B-BE8FB4826366},Inlet,1
 Non-Parent Node Connection,NODE 107,OUTDOORAIR:MIXER,OUTDOORAIR:MIXER {8BADC005-2FB5-4186-AE4B-BE8FB4826366},ReliefAir,1
 Non-Parent Node Connection,NODE 101,OUTDOORAIR:MIXER,OUTDOORAIR:MIXER {8BADC005-2FB5-4186-AE4B-BE8FB4826366},Inlet,1
 Non-Parent Node Connection,NODE 110,CONTROLLER:WATERCOIL,CONTROLLER WATER COIL 1,Sensor,1
 Non-Parent Node Connection,NODE 116,CONTROLLER:WATERCOIL,CONTROLLER WATER COIL 1,Actuator,1
 Non-Parent Node Connection,NODE 108,CONTROLLER:OUTDOORAIR,CONTROLLER OUTDOOR AIR 1,Sensor,1
 Non-Parent Node Connection,NODE 106,CONTROLLER:OUTDOORAIR,CONTROLLER OUTDOOR AIR 1,Actuator,1
 Non-Parent Node Connection,NODE 107,CONTROLLER:OUTDOORAIR,CONTROLLER OUTDOOR AIR 1,Actuator,1
 Non-Parent Node Connection,NODE 101,CONTROLLER:OUTDOORAIR,CONTROLLER OUTDOOR AIR 1,Sensor,1
 Non-Parent Node Connection,NODE 108,COIL:COOLING:DX:TWOSPEED,COIL COOLING DX TWO SPEED 1,Inlet,1
 Non-Parent Node Connection,NODE 109,COIL:COOLING:DX:TWOSPEED,COIL COOLING DX TWO SPEED 1,Outlet,1
 Non-Parent Node Connection,NODE 110,FAN:VARIABLEVOLUME,FAN VARIABLE VOLUME 1,Inlet,1
 Non-Parent Node Connection,NODE 102,FAN:VARIABLEVOLUME,FAN VARIABLE VOLUME 1,Outlet,1
 Non-Parent Node Connection,NODE 119,PIPE:ADIABATIC,PIPE ADIABATIC 1,Inlet,1
 Non-Parent Node Connection,NODE 120,PIPE:ADIABATIC,PIPE ADIABATIC 1,Outlet,1
 Non-Parent Node Connection,NODE 121,PIPE:ADIABATIC,PIPE ADIABATIC 2,Inlet,1
 Non-Parent Node Connection,NODE 112,PIPE:ADIABATIC,PIPE ADIABATIC 2,Outlet,1
 Non-Parent Node Connection,NODE 114,PIPE:ADIABATIC,PLANT LOOP 1 DEMAND INLET PIPE,Inlet,1
 Non-Parent Node Connection,PLANT LOOP 1 DEMAND INLET PIPE NODE,PIPE:ADIABATIC,PLANT LOOP 1 DEMAND INLET PIPE,Outlet,1
 Non-Parent Node Connection,PLANT LOOP 1 DEMAND BYPASS PIPE INLET NODE,PIPE:ADIABATIC,PLANT LOOP 1 DEMAND BYPASS PIPE,Inlet,1
 Non-Parent Node Connection,PLANT LOOP 1 DEMAND BYPASS PIPE OUTLET NODE,PIPE:ADIABATIC,PLANT LOOP 1 DEMAND BYPASS PIPE,Outlet,1
 Non-Parent Node Connection,PLANT LOOP 1 DEMAND OUTLET PIPE NODE,PIPE:ADIABATIC,PLANT LOOP 1 DEMAND OUTLET PIPE,Inlet,1
 Non-Parent Node Connection,NODE 115,PIPE:ADIABATIC,PLANT LOOP 1 DEMAND OUTLET PIPE,Outlet,1
 Non-Parent Node Connection,NODE 113,BOILER:HOTWATER,BOILER HOT WATER 1,Inlet,1
 Non-Parent Node Connection,NODE 118,BOILER:HOTWATER,BOILER HOT WATER 1,Outlet,1
 Non-Parent Node Connection,NODE 111,PUMP:VARIABLESPEED,PUMP VARIABLE SPEED 1,Inlet,1
 Non-Parent Node Connection,NODE 117,PUMP:VARIABLESPEED,PUMP VARIABLE SPEED 1,Outlet,1
