Program Version,EnergyPlus-Linux-OMP-32 7.2.0.006, YMD=2013.07.01 22:16
! <Version>, Version ID
 Version, 7.2
! <Timesteps per Hour>, #TimeSteps, Minutes per TimeStep {minutes}
 Timesteps per Hour,  4, 15
! <System Convergence Limits>, Minimum System TimeStep {minutes}, Max HVAC Iterations,  Minimum Plant Iterations, Maximum Plant Iterations
 System Convergence Limits, 1, 20, 2, 8
! <Simulation Control>, Do Zone Sizing, Do System Sizing, Do Plant Sizing, Do Design Days, Do Weather Simulation
 Simulation Control, Yes, Yes, Yes, Yes, Yes
! <Output Reporting Tolerances>, Tolerance for Time Heating Setpoint Not Met, Tolerance for Time Cooling Setpoint Not Met
 Output Reporting Tolerances, 0.200, 0.200, 
! <Site:GroundTemperature:BuildingSurface>, Months From Jan to Dec {Deg C}
 Site:GroundTemperature:BuildingSurface,  18.00,  18.00,  18.00,  18.00,  18.00,  18.00,  18.00,  18.00,  18.00,  18.00,  18.00,  18.00
! <Site:GroundTemperature:FCfactorMethod>, Months From Jan to Dec {Deg C}
 Site:GroundTemperature:FCfactorMethod,   1.62,   0.54,   2.47,   5.49,  13.39,  19.49,  23.60,  24.85,  22.72,  17.98,  11.66,   5.79
! <Site:GroundTemperature:Shallow>, Months From Jan to Dec {Deg C}
 Site:GroundTemperature:Shallow,  13.00,  13.00,  13.00,  13.00,  13.00,  13.00,  13.00,  13.00,  13.00,  13.00,  13.00,  13.00
! <Site:GroundTemperature:Deep>, Months From Jan to Dec {Deg C}
 Site:GroundTemperature:Deep,  16.00,  16.00,  16.00,  16.00,  16.00,  16.00,  16.00,  16.00,  16.00,  16.00,  16.00,  16.00
! <Site:GroundReflectance>, Months From Jan to Dec {dimensionless}
 Site:GroundReflectance,  0.20,  0.20,  0.20,  0.20,  0.20,  0.20,  0.20,  0.20,  0.20,  0.20,  0.20,  0.20
! <Site:GroundReflectance:SnowModifier>, Normal, Daylighting {dimensionless}
 Site:GroundReflectance:SnowModifier,   1.000,   1.000
! <Site:GroundReflectance:Snow>, Months From Jan to Dec {dimensionless}
 Site:GroundReflectance:Snow,  0.20,  0.20,  0.20,  0.20,  0.20,  0.20,  0.20,  0.20,  0.20,  0.20,  0.20,  0.20
! <Site:GroundReflectance:Snow:Daylighting>, Months From Jan to Dec {dimensionless}
 Site:GroundReflectance:Snow:Daylighting,  0.20,  0.20,  0.20,  0.20,  0.20,  0.20,  0.20,  0.20,  0.20,  0.20,  0.20,  0.20
! <Environment:Weather Station>,Wind Sensor Height Above Ground {m},Wind Speed Profile Exponent {},Wind Speed Profile Boundary Layer Thickness {m},Air Temperature Sensor Height Above Ground {m},Wind Speed Modifier Coefficient [Internal],Temperature Modifier Coefficient [Internal]
Environment:Weather Station,10.000,0.140,270.000,1.500,1.586,9.750E-003
! <Site:Location>, Location Name, Latitude {N+/S- Deg}, Longitude {E+/W- Deg},  Time Zone Number {GMT+/-}, Elevation {m},  Standard Pressure at Elevation {Pa}, Standard RhoAir at Elevation
Site:Location,Philadelphia International Ap PA USA TMY3 WMO#=724080,39.87,-75.23,-5.00,2.00,101301,1.2040
! <Building Information>, Building Name,North Axis {deg},Terrain,  Loads Convergence Tolerance Value,Temperature Convergence Tolerance Value,  Solar Distribution,Maximum Number of Warmup Days,Minimum Number of Warmup Days
 Building Information,Building 1,0.000,Suburbs,4.00000E-002,0.40000,FullExterior,25,6
! <Inside Convection Algorithm>, Algorithm {Simple | TARP | CeilingDiffuser | AdaptiveConvectionAlgorithm}
Inside Convection Algorithm,TARP
! <Outside Convection Algorithm>, Algorithm {SimpleCombined | TARP | MoWitt | DOE-2 | AdaptiveConvectionAlgorithm}
Outside Convection Algorithm,DOE-2
! <Sky Radiance Distribution>, Value {Anisotropic}
Sky Radiance Distribution,Anisotropic
! <Zone Air Solution Algorithm>, Value {ThirdOrderBackwardDifference | AnalyticalSolution | EulerMethod}
 Zone Air Solution Algorithm, ThirdOrderBackwardDifference
! <Zone Air Contaminant Balance Simulation>, Simulation {Yes/No}, Carbon Dioxide Concentration
 Zone Air Carbon Dioxide Balance Simulation, No,N/A
! <Zone Air Contaminant Balance Simulation>, Simulation {Yes/No}, Generic Contaminant Concentration
 Zone Air Generic Contaminant Balance Simulation, No,N/A
! <Environment:Site Atmospheric Variation>,Wind Speed Profile Exponent {},Wind Speed Profile Boundary Layer Thickness {m},Air Temperature Gradient Coefficient {K/m}
Environment:Site Atmospheric Variation,0.220,370.000,6.500000E-003
! <SurfaceGeometry>,Starting Corner,Vertex Input Direction,Coordinate System,Daylight Reference Point Coordinate System,Rectangular (Simple) Surface Coordinate System
 Surface Geometry,UpperLeftCorner,Counterclockwise,RelativeCoordinateSystem,RelativeCoordinateSystem,RelativeToZoneOrigin
! <Surface Heat Transfer Algorithm>, Value {CTF - ConductionTransferFunction | EMPD - MoisturePenetrationDepthConductionTransferFunction | CondFD - ConductionFiniteDifference | HAMT - CombinedHeatAndMoistureFiniteElement} - Description,Inside Surface Max Temperature Limit{C}, Surface Convection Coefficient Lower Limit {W/m2-K}, Surface Convection Coefficient Upper Limit {W/m2-K}
Surface Heat Transfer Algorithm, CTF - ConductionTransferFunction,200,0.10,1000.0
! <Shading Summary>, Number of Fixed Detached Shades, Number of Building Detached Shades, Number of Attached Shades
 Shading Summary,0,0,0
! <Zone Summary>, Number of Zones, Number of Zone Surfaces, Number of SubSurfaces
 Zone Summary,100,680,80
! <Zone Information>,Zone Name,North Axis {deg},Origin X-Coordinate {m},Origin Y-Coordinate {m},Origin Z-Coordinate {m},Centroid X-Coordinate {m},Centroid Y-Coordinate {m},Centroid Z-Coordinate {m},Type,Zone Multiplier,Zone List Multiplier,Minimum X {m},Maximum X {m},Minimum Y {m},Maximum Y {m},Minimum Z {m},Maximum Z {m},Ceiling Height {m},Volume {m3},Zone Inside Convection Algorithm {Simple-Detailed-CeilingDiffuser-TrombeWall},Zone Outside Convection Algorithm {Simple-Detailed-Tarp-MoWitt-DOE-2-BLAST}, Floor Area {m2},Exterior Gross Wall Area {m2},Exterior Net Wall Area {m2},Exterior Window Area {m2}, Number of Surfaces, Number of SubSurfaces, Number of Shading SubSurfaces,  Part of Total Building Area
 Zone Information, THERMAL ZONE 95,0.0,3.00,7.00,12.00,5.00,8.84,14.00,1,1,1,0.00,10.00,7.00,10.00,12.00,16.00,4.00,84.00,TARP,DOE-2,21.00,40.00,32.00,8.00,6,1,0,Yes
 Zone Information, THERMAL ZONE 24,0.0,3.00,7.00,20.00,5.00,8.84,22.00,1,1,1,0.00,10.00,7.00,10.00,20.00,24.00,4.00,84.00,TARP,DOE-2,21.00,40.00,32.00,8.00,6,1,0,Yes
 Zone Information, THERMAL ZONE 99,0.0,3.00,3.00,68.00,5.00,5.00,70.00,1,1,1,3.00,7.00,3.00,7.00,68.00,72.00,4.00,64.00,TARP,DOE-2,16.00,0.00,0.00,0.00,6,0,0,Yes
 Zone Information, THERMAL ZONE 50,0.0,0.00,0.00,8.00,1.16,5.00,10.00,1,1,1,0.00,3.00,0.00,10.00,8.00,12.00,4.00,84.00,TARP,DOE-2,21.00,40.00,32.00,8.00,6,1,0,Yes
 Zone Information, THERMAL ZONE 4,0.0,3.00,7.00,40.00,5.00,8.84,42.00,1,1,1,0.00,10.00,7.00,10.00,40.00,44.00,4.00,84.00,TARP,DOE-2,21.00,40.00,32.00,8.00,6,1,0,Yes
 Zone Information, THERMAL ZONE 94,0.0,3.00,3.00,32.00,5.00,5.00,34.00,1,1,1,3.00,7.00,3.00,7.00,32.00,36.00,4.00,64.00,TARP,DOE-2,16.00,0.00,0.00,0.00,6,0,0,Yes
 Zone Information, THERMAL ZONE 65,0.0,0.00,0.00,24.00,5.00,1.16,26.00,1,1,1,0.00,10.00,0.00,3.00,24.00,28.00,4.00,84.00,TARP,DOE-2,21.00,40.00,32.00,8.00,6,1,0,Yes
 Zone Information, THERMAL ZONE 32,0.0,3.00,3.00,60.00,5.00,5.00,62.00,1,1,1,3.00,7.00,3.00,7.00,60.00,64.00,4.00,64.00,TARP,DOE-2,16.00,0.00,0.00,0.00,6,0,0,Yes
 Zone Information, THERMAL ZONE 20,0.0,3.00,3.00,24.00,5.00,5.00,26.00,1,1,1,3.00,7.00,3.00,7.00,24.00,28.00,4.00,64.00,TARP,DOE-2,16.00,0.00,0.00,0.00,6,0,0,Yes
 Zone Information, THERMAL ZONE 51,0.0,0.00,0.00,40.00,5.00,1.16,42.00,1,1,1,0.00,10.00,0.00,3.00,40.00,44.00,4.00,84.00,TARP,DOE-2,21.00,40.00,32.00,8.00,6,1,0,Yes
 Zone Information, THERMAL ZONE 58,0.0,0.00,0.00,52.00,1.16,5.00,54.00,1,1,1,0.00,3.00,0.00,10.00,52.00,56.00,4.00,84.00,TARP,DOE-2,21.00,40.00,32.00,8.00,6,1,0,Yes
 Zone Information, THERMAL ZONE 41,0.0,7.00,3.00,56.00,8.84,5.00,58.00,1,1,1,7.00,10.00,0.00,10.00,56.00,60.00,4.00,84.00,TARP,DOE-2,21.00,40.00,32.00,8.00,6,1,0,Yes
 Zone Information, THERMAL ZONE 38,0.0,3.00,3.00,16.00,5.00,5.00,18.00,1,1,1,3.00,7.00,3.00,7.00,16.00,20.00,4.00,64.00,TARP,DOE-2,16.00,0.00,0.00,0.00,6,0,0,Yes
 Zone Information, THERMAL ZONE 37,0.0,7.00,3.00,44.00,8.84,5.00,46.00,1,1,1,7.00,10.00,0.00,10.00,44.00,48.00,4.00,84.00,TARP,DOE-2,21.00,40.00,32.00,8.00,6,1,0,Yes
 Zone Information, THERMAL ZONE 39,0.0,3.00,3.00,12.00,5.00,5.00,14.00,1,1,1,3.00,7.00,3.00,7.00,12.00,16.00,4.00,64.00,TARP,DOE-2,16.00,0.00,0.00,0.00,6,0,0,Yes
 Zone Information, THERMAL ZONE 92,0.0,0.00,0.00,36.00,1.16,5.00,38.00,1,1,1,0.00,3.00,0.00,10.00,36.00,40.00,4.00,84.00,TARP,DOE-2,21.00,40.00,32.00,8.00,6,1,0,Yes
 Zone Information, THERMAL ZONE 56,0.0,0.00,0.00,0.00,1.16,5.00,2.00,1,1,1,0.00,3.00,0.00,10.00,0.00,4.00,4.00,84.00,TARP,DOE-2,21.00,40.00,32.00,8.00,6,1,0,Yes
 Zone Information, THERMAL ZONE 59,0.0,0.00,0.00,60.00,5.00,1.16,62.00,1,1,1,0.00,10.00,0.00,3.00,60.00,64.00,4.00,84.00,TARP,DOE-2,21.00,40.00,32.00,8.00,6,1,0,Yes
 Zone Information, THERMAL ZONE 76,0.0,3.00,7.00,44.00,5.00,8.84,46.00,1,1,1,0.00,10.00,7.00,10.00,44.00,48.00,4.00,84.00,TARP,DOE-2,21.00,40.00,32.00,8.00,6,1,0,Yes
 Zone Information, THERMAL ZONE 77,0.0,3.00,3.00,4.00,5.00,5.00,6.00,1,1,1,3.00,7.00,3.00,7.00,4.00,8.00,4.00,64.00,TARP,DOE-2,16.00,0.00,0.00,0.00,6,0,0,Yes
 Zone Information, THERMAL ZONE 93,0.0,3.00,3.00,0.00,5.00,5.00,2.00,1,1,1,3.00,7.00,3.00,7.00,0.00,4.00,4.00,64.00,TARP,DOE-2,16.00,0.00,0.00,0.00,6,0,0,Yes
 Zone Information, THERMAL ZONE 25,0.0,7.00,3.00,76.00,8.84,5.00,78.00,1,1,1,7.00,10.00,0.00,10.00,76.00,80.00,4.00,84.00,TARP,DOE-2,21.00,40.00,32.00,8.00,6,1,0,Yes
 Zone Information, THERMAL ZONE 35,0.0,7.00,3.00,32.00,8.84,5.00,34.00,1,1,1,7.00,10.00,0.00,10.00,32.00,36.00,4.00,84.00,TARP,DOE-2,21.00,40.00,32.00,8.00,6,1,0,Yes
 Zone Information, THERMAL ZONE 66,0.0,7.00,3.00,60.00,8.84,5.00,62.00,1,1,1,7.00,10.00,0.00,10.00,60.00,64.00,4.00,84.00,TARP,DOE-2,21.00,40.00,32.00,8.00,6,1,0,Yes
 Zone Information, THERMAL ZONE 79,0.0,0.00,0.00,0.00,5.00,1.16,2.00,1,1,1,0.00,10.00,0.00,3.00,0.00,4.00,4.00,84.00,TARP,DOE-2,21.00,40.00,32.00,8.00,6,1,0,Yes
 Zone Information, THERMAL ZONE 34,0.0,3.00,3.00,48.00,5.00,5.00,50.00,1,1,1,3.00,7.00,3.00,7.00,48.00,52.00,4.00,64.00,TARP,DOE-2,16.00,0.00,0.00,0.00,6,0,0,Yes
 Zone Information, THERMAL ZONE 1,0.0,7.00,3.00,72.00,8.84,5.00,74.00,1,1,1,7.00,10.00,0.00,10.00,72.00,76.00,4.00,84.00,TARP,DOE-2,21.00,40.00,32.00,8.00,6,1,0,Yes
 Zone Information, THERMAL ZONE 73,0.0,3.00,3.00,72.00,5.00,5.00,74.00,1,1,1,3.00,7.00,3.00,7.00,72.00,76.00,4.00,64.00,TARP,DOE-2,16.00,0.00,0.00,0.00,6,0,0,Yes
 Zone Information, THERMAL ZONE 55,0.0,3.00,7.00,16.00,5.00,8.84,18.00,1,1,1,0.00,10.00,7.00,10.00,16.00,20.00,4.00,84.00,TARP,DOE-2,21.00,40.00,32.00,8.00,6,1,0,Yes
 Zone Information, THERMAL ZONE 9,0.0,0.00,0.00,32.00,1.16,5.00,34.00,1,1,1,0.00,3.00,0.00,10.00,32.00,36.00,4.00,84.00,TARP,DOE-2,21.00,40.00,32.00,8.00,6,1,0,Yes
 Zone Information, THERMAL ZONE 90,0.0,0.00,0.00,72.00,5.00,1.16,74.00,1,1,1,0.00,10.00,0.00,3.00,72.00,76.00,4.00,84.00,TARP,DOE-2,21.00,40.00,32.00,8.00,6,1,0,Yes
 Zone Information, THERMAL ZONE 71,0.0,3.00,7.00,76.00,5.00,8.84,78.00,1,1,1,0.00,10.00,7.00,10.00,76.00,80.00,4.00,84.00,TARP,DOE-2,21.00,40.00,32.00,8.00,6,1,0,Yes
 Zone Information, THERMAL ZONE 86,0.0,3.00,7.00,56.00,5.00,8.84,58.00,1,1,1,0.00,10.00,7.00,10.00,56.00,60.00,4.00,84.00,TARP,DOE-2,21.00,40.00,32.00,8.00,6,1,0,Yes
 Zone Information, THERMAL ZONE 30,0.0,3.00,3.00,40.00,5.00,5.00,42.00,1,1,1,3.00,7.00,3.00,7.00,40.00,44.00,4.00,64.00,TARP,DOE-2,16.00,0.00,0.00,0.00,6,0,0,Yes
 Zone Information, THERMAL ZONE 8,0.0,0.00,0.00,40.00,1.16,5.00,42.00,1,1,1,0.00,3.00,0.00,10.00,40.00,44.00,4.00,84.00,TARP,DOE-2,21.00,40.00,32.00,8.00,6,1,0,Yes
 Zone Information, THERMAL ZONE 45,0.0,3.00,3.00,20.00,5.00,5.00,22.00,1,1,1,3.00,7.00,3.00,7.00,20.00,24.00,4.00,64.00,TARP,DOE-2,16.00,0.00,0.00,0.00,6,0,0,Yes
 Zone Information, THERMAL ZONE 40,0.0,7.00,3.00,16.00,8.84,5.00,18.00,1,1,1,7.00,10.00,0.00,10.00,16.00,20.00,4.00,84.00,TARP,DOE-2,21.00,40.00,32.00,8.00,6,1,0,Yes
 Zone Information, THERMAL ZONE 46,0.0,7.00,3.00,48.00,8.84,5.00,50.00,1,1,1,7.00,10.00,0.00,10.00,48.00,52.00,4.00,84.00,TARP,DOE-2,21.00,40.00,32.00,8.00,6,1,0,Yes
 Zone Information, THERMAL ZONE 62,0.0,0.00,0.00,72.00,1.16,5.00,74.00,1,1,1,0.00,3.00,0.00,10.00,72.00,76.00,4.00,84.00,TARP,DOE-2,21.00,40.00,32.00,8.00,6,1,0,Yes
 Zone Information, THERMAL ZONE 18,0.0,0.00,0.00,44.00,1.16,5.00,46.00,1,1,1,0.00,3.00,0.00,10.00,44.00,48.00,4.00,84.00,TARP,DOE-2,21.00,40.00,32.00,8.00,6,1,0,Yes
 Zone Information, THERMAL ZONE 57,0.0,3.00,7.00,0.00,5.00,8.84,2.00,1,1,1,0.00,10.00,7.00,10.00,0.00,4.00,4.00,84.00,TARP,DOE-2,21.00,40.00,32.00,8.00,6,1,0,Yes
 Zone Information, THERMAL ZONE 98,0.0,0.00,0.00,68.00,5.00,1.16,70.00,1,1,1,0.00,10.00,0.00,3.00,68.00,72.00,4.00,84.00,TARP,DOE-2,21.00,40.00,32.00,8.00,6,1,0,Yes
 Zone Information, THERMAL ZONE 48,0.0,3.00,7.00,36.00,5.00,8.84,38.00,1,1,1,0.00,10.00,7.00,10.00,36.00,40.00,4.00,84.00,TARP,DOE-2,21.00,40.00,32.00,8.00,6,1,0,Yes
 Zone Information, THERMAL ZONE 21,0.0,3.00,3.00,64.00,5.00,5.00,66.00,1,1,1,3.00,7.00,3.00,7.00,64.00,68.00,4.00,64.00,TARP,DOE-2,16.00,0.00,0.00,0.00,6,0,0,Yes
 Zone Information, THERMAL ZONE 7,0.0,3.00,3.00,36.00,5.00,5.00,38.00,1,1,1,3.00,7.00,3.00,7.00,36.00,40.00,4.00,64.00,TARP,DOE-2,16.00,0.00,0.00,0.00,6,0,0,Yes
 Zone Information, THERMAL ZONE 85,0.0,7.00,3.00,24.00,8.84,5.00,26.00,1,1,1,7.00,10.00,0.00,10.00,24.00,28.00,4.00,84.00,TARP,DOE-2,21.00,40.00,32.00,8.00,6,1,0,Yes
 Zone Information, THERMAL ZONE 60,0.0,3.00,7.00,48.00,5.00,8.84,50.00,1,1,1,0.00,10.00,7.00,10.00,48.00,52.00,4.00,84.00,TARP,DOE-2,21.00,40.00,32.00,8.00,6,1,0,Yes
 Zone Information, THERMAL ZONE 43,0.0,3.00,7.00,8.00,5.00,8.84,10.00,1,1,1,0.00,10.00,7.00,10.00,8.00,12.00,4.00,84.00,TARP,DOE-2,21.00,40.00,32.00,8.00,6,1,0,Yes
 Zone Information, THERMAL ZONE 19,0.0,0.00,0.00,20.00,1.16,5.00,22.00,1,1,1,0.00,3.00,0.00,10.00,20.00,24.00,4.00,84.00,TARP,DOE-2,21.00,40.00,32.00,8.00,6,1,0,Yes
 Zone Information, THERMAL ZONE 89,0.0,0.00,0.00,52.00,5.00,1.16,54.00,1,1,1,0.00,10.00,0.00,3.00,52.00,56.00,4.00,84.00,TARP,DOE-2,21.00,40.00,32.00,8.00,6,1,0,Yes
 Zone Information, THERMAL ZONE 53,0.0,3.00,3.00,44.00,5.00,5.00,46.00,1,1,1,3.00,7.00,3.00,7.00,44.00,48.00,4.00,64.00,TARP,DOE-2,16.00,0.00,0.00,0.00,6,0,0,Yes
 Zone Information, THERMAL ZONE 80,0.0,0.00,0.00,12.00,5.00,1.16,14.00,1,1,1,0.00,10.00,0.00,3.00,12.00,16.00,4.00,84.00,TARP,DOE-2,21.00,40.00,32.00,8.00,6,1,0,Yes
 Zone Information, THERMAL ZONE 78,0.0,3.00,7.00,72.00,5.00,8.84,74.00,1,1,1,0.00,10.00,7.00,10.00,72.00,76.00,4.00,84.00,TARP,DOE-2,21.00,40.00,32.00,8.00,6,1,0,Yes
 Zone Information, THERMAL ZONE 69,0.0,7.00,3.00,36.00,8.84,5.00,38.00,1,1,1,7.00,10.00,0.00,10.00,36.00,40.00,4.00,84.00,TARP,DOE-2,21.00,40.00,32.00,8.00,6,1,0,Yes
 Zone Information, THERMAL ZONE 28,0.0,0.00,0.00,48.00,5.00,1.16,50.00,1,1,1,0.00,10.00,0.00,3.00,48.00,52.00,4.00,84.00,TARP,DOE-2,21.00,40.00,32.00,8.00,6,1,0,Yes
 Zone Information, THERMAL ZONE 10,0.0,0.00,0.00,16.00,1.16,5.00,18.00,1,1,1,0.00,3.00,0.00,10.00,16.00,20.00,4.00,84.00,TARP,DOE-2,21.00,40.00,32.00,8.00,6,1,0,Yes
 Zone Information, THERMAL ZONE 5,0.0,0.00,0.00,76.00,1.16,5.00,78.00,1,1,1,0.00,3.00,0.00,10.00,76.00,80.00,4.00,84.00,TARP,DOE-2,21.00,40.00,32.00,8.00,6,1,0,Yes
 Zone Information, THERMAL ZONE 27,0.0,7.00,3.00,4.00,8.84,5.00,6.00,1,1,1,7.00,10.00,0.00,10.00,4.00,8.00,4.00,84.00,TARP,DOE-2,21.00,40.00,32.00,8.00,6,1,0,Yes
 Zone Information, THERMAL ZONE 81,0.0,3.00,7.00,28.00,5.00,8.84,30.00,1,1,1,0.00,10.00,7.00,10.00,28.00,32.00,4.00,84.00,TARP,DOE-2,21.00,40.00,32.00,8.00,6,1,0,Yes
 Zone Information, THERMAL ZONE 68,0.0,0.00,0.00,28.00,1.16,5.00,30.00,1,1,1,0.00,3.00,0.00,10.00,28.00,32.00,4.00,84.00,TARP,DOE-2,21.00,40.00,32.00,8.00,6,1,0,Yes
 Zone Information, THERMAL ZONE 67,0.0,3.00,7.00,64.00,5.00,8.84,66.00,1,1,1,0.00,10.00,7.00,10.00,64.00,68.00,4.00,84.00,TARP,DOE-2,21.00,40.00,32.00,8.00,6,1,0,Yes
 Zone Information, THERMAL ZONE 61,0.0,0.00,0.00,24.00,1.16,5.00,26.00,1,1,1,0.00,3.00,0.00,10.00,24.00,28.00,4.00,84.00,TARP,DOE-2,21.00,40.00,32.00,8.00,6,1,0,Yes
 Zone Information, THERMAL ZONE 100,0.0,0.00,0.00,76.00,5.00,1.16,78.00,1,1,1,0.00,10.00,0.00,3.00,76.00,80.00,4.00,84.00,TARP,DOE-2,21.00,40.00,32.00,8.00,6,1,0,Yes
 Zone Information, THERMAL ZONE 91,0.0,3.00,7.00,4.00,5.00,8.84,6.00,1,1,1,0.00,10.00,7.00,10.00,4.00,8.00,4.00,84.00,TARP,DOE-2,21.00,40.00,32.00,8.00,6,1,0,Yes
 Zone Information, THERMAL ZONE 75,0.0,3.00,3.00,56.00,5.00,5.00,58.00,1,1,1,3.00,7.00,3.00,7.00,56.00,60.00,4.00,64.00,TARP,DOE-2,16.00,0.00,0.00,0.00,6,0,0,Yes
 Zone Information, THERMAL ZONE 36,0.0,0.00,0.00,64.00,1.16,5.00,66.00,1,1,1,0.00,3.00,0.00,10.00,64.00,68.00,4.00,84.00,TARP,DOE-2,21.00,40.00,32.00,8.00,6,1,0,Yes
 Zone Information, THERMAL ZONE 15,0.0,3.00,7.00,60.00,5.00,8.84,62.00,1,1,1,0.00,10.00,7.00,10.00,60.00,64.00,4.00,84.00,TARP,DOE-2,21.00,40.00,32.00,8.00,6,1,0,Yes
 Zone Information, THERMAL ZONE 88,0.0,0.00,0.00,12.00,1.16,5.00,14.00,1,1,1,0.00,3.00,0.00,10.00,12.00,16.00,4.00,84.00,TARP,DOE-2,21.00,40.00,32.00,8.00,6,1,0,Yes
 Zone Information, THERMAL ZONE 16,0.0,0.00,0.00,4.00,5.00,1.16,6.00,1,1,1,0.00,10.00,0.00,3.00,4.00,8.00,4.00,84.00,TARP,DOE-2,21.00,40.00,32.00,8.00,6,1,0,Yes
 Zone Information, THERMAL ZONE 11,0.0,3.00,7.00,24.00,5.00,8.84,26.00,1,1,1,0.00,10.00,7.00,10.00,24.00,28.00,4.00,84.00,TARP,DOE-2,21.00,40.00,32.00,8.00,6,1,0,Yes
 Zone Information, THERMAL ZONE 44,0.0,7.00,3.00,20.00,8.84,5.00,22.00,1,1,1,7.00,10.00,0.00,10.00,20.00,24.00,4.00,84.00,TARP,DOE-2,21.00,40.00,32.00,8.00,6,1,0,Yes
 Zone Information, THERMAL ZONE 70,0.0,7.00,3.00,28.00,8.84,5.00,30.00,1,1,1,7.00,10.00,0.00,10.00,28.00,32.00,4.00,84.00,TARP,DOE-2,21.00,40.00,32.00,8.00,6,1,0,Yes
 Zone Information, THERMAL ZONE 97,0.0,0.00,0.00,60.00,1.16,5.00,62.00,1,1,1,0.00,3.00,0.00,10.00,60.00,64.00,4.00,84.00,TARP,DOE-2,21.00,40.00,32.00,8.00,6,1,0,Yes
 Zone Information, THERMAL ZONE 84,0.0,7.00,3.00,68.00,8.84,5.00,70.00,1,1,1,7.00,10.00,0.00,10.00,68.00,72.00,4.00,84.00,TARP,DOE-2,21.00,40.00,32.00,8.00,6,1,0,Yes
 Zone Information, THERMAL ZONE 14,0.0,3.00,3.00,8.00,5.00,5.00,10.00,1,1,1,3.00,7.00,3.00,7.00,8.00,12.00,4.00,64.00,TARP,DOE-2,16.00,0.00,0.00,0.00,6,0,0,Yes
 Zone Information, THERMAL ZONE 12,0.0,3.00,3.00,76.00,5.00,5.00,78.00,1,1,1,3.00,7.00,3.00,7.00,76.00,80.00,4.00,64.00,TARP,DOE-2,16.00,0.00,0.00,0.00,6,0,0,Yes
 Zone Information, THERMAL ZONE 83,0.0,7.00,3.00,52.00,8.84,5.00,54.00,1,1,1,7.00,10.00,0.00,10.00,52.00,56.00,4.00,84.00,TARP,DOE-2,21.00,40.00,32.00,8.00,6,1,0,Yes
 Zone Information, THERMAL ZONE 52,0.0,0.00,0.00,68.00,1.16,5.00,70.00,1,1,1,0.00,3.00,0.00,10.00,68.00,72.00,4.00,84.00,TARP,DOE-2,21.00,40.00,32.00,8.00,6,1,0,Yes
 Zone Information, THERMAL ZONE 33,0.0,3.00,7.00,52.00,5.00,8.84,54.00,1,1,1,0.00,10.00,7.00,10.00,52.00,56.00,4.00,84.00,TARP,DOE-2,21.00,40.00,32.00,8.00,6,1,0,Yes
 Zone Information, THERMAL ZONE 82,0.0,3.00,7.00,32.00,5.00,8.84,34.00,1,1,1,0.00,10.00,7.00,10.00,32.00,36.00,4.00,84.00,TARP,DOE-2,21.00,40.00,32.00,8.00,6,1,0,Yes
 Zone Information, THERMAL ZONE 3,0.0,0.00,0.00,8.00,5.00,1.16,10.00,1,1,1,0.00,10.00,0.00,3.00,8.00,12.00,4.00,84.00,TARP,DOE-2,21.00,40.00,32.00,8.00,6,1,0,Yes
 Zone Information, THERMAL ZONE 49,0.0,0.00,0.00,32.00,5.00,1.16,34.00,1,1,1,0.00,10.00,0.00,3.00,32.00,36.00,4.00,84.00,TARP,DOE-2,21.00,40.00,32.00,8.00,6,1,0,Yes
 Zone Information, THERMAL ZONE 13,0.0,7.00,3.00,40.00,8.84,5.00,42.00,1,1,1,7.00,10.00,0.00,10.00,40.00,44.00,4.00,84.00,TARP,DOE-2,21.00,40.00,32.00,8.00,6,1,0,Yes
 Zone Information, THERMAL ZONE 42,0.0,3.00,3.00,28.00,5.00,5.00,30.00,1,1,1,3.00,7.00,3.00,7.00,28.00,32.00,4.00,64.00,TARP,DOE-2,16.00,0.00,0.00,0.00,6,0,0,Yes
 Zone Information, THERMAL ZONE 47,0.0,3.00,7.00,68.00,5.00,8.84,70.00,1,1,1,0.00,10.00,7.00,10.00,68.00,72.00,4.00,84.00,TARP,DOE-2,21.00,40.00,32.00,8.00,6,1,0,Yes
 Zone Information, THERMAL ZONE 64,0.0,7.00,3.00,12.00,8.84,5.00,14.00,1,1,1,7.00,10.00,0.00,10.00,12.00,16.00,4.00,84.00,TARP,DOE-2,21.00,40.00,32.00,8.00,6,1,0,Yes
 Zone Information, THERMAL ZONE 54,0.0,0.00,0.00,20.00,5.00,1.16,22.00,1,1,1,0.00,10.00,0.00,3.00,20.00,24.00,4.00,84.00,TARP,DOE-2,21.00,40.00,32.00,8.00,6,1,0,Yes
 Zone Information, THERMAL ZONE 74,0.0,3.00,3.00,52.00,5.00,5.00,54.00,1,1,1,3.00,7.00,3.00,7.00,52.00,56.00,4.00,64.00,TARP,DOE-2,16.00,0.00,0.00,0.00,6,0,0,Yes
 Zone Information, THERMAL ZONE 6,0.0,7.00,3.00,64.00,8.84,5.00,66.00,1,1,1,7.00,10.00,0.00,10.00,64.00,68.00,4.00,84.00,TARP,DOE-2,21.00,40.00,32.00,8.00,6,1,0,Yes
 Zone Information, THERMAL ZONE 23,0.0,0.00,0.00,36.00,5.00,1.16,38.00,1,1,1,0.00,10.00,0.00,3.00,36.00,40.00,4.00,84.00,TARP,DOE-2,21.00,40.00,32.00,8.00,6,1,0,Yes
 Zone Information, THERMAL ZONE 63,0.0,0.00,0.00,28.00,5.00,1.16,30.00,1,1,1,0.00,10.00,0.00,3.00,28.00,32.00,4.00,84.00,TARP,DOE-2,21.00,40.00,32.00,8.00,6,1,0,Yes
 Zone Information, THERMAL ZONE 29,0.0,7.00,3.00,8.00,8.84,5.00,10.00,1,1,1,7.00,10.00,0.00,10.00,8.00,12.00,4.00,84.00,TARP,DOE-2,21.00,40.00,32.00,8.00,6,1,0,Yes
 Zone Information, THERMAL ZONE 96,0.0,0.00,0.00,44.00,5.00,1.16,46.00,1,1,1,0.00,10.00,0.00,3.00,44.00,48.00,4.00,84.00,TARP,DOE-2,21.00,40.00,32.00,8.00,6,1,0,Yes
 Zone Information, THERMAL ZONE 26,0.0,0.00,0.00,48.00,1.16,5.00,50.00,1,1,1,0.00,3.00,0.00,10.00,48.00,52.00,4.00,84.00,TARP,DOE-2,21.00,40.00,32.00,8.00,6,1,0,Yes
 Zone Information, THERMAL ZONE 17,0.0,0.00,0.00,16.00,5.00,1.16,18.00,1,1,1,0.00,10.00,0.00,3.00,16.00,20.00,4.00,84.00,TARP,DOE-2,21.00,40.00,32.00,8.00,6,1,0,Yes
 Zone Information, THERMAL ZONE 72,0.0,0.00,0.00,56.00,5.00,1.16,58.00,1,1,1,0.00,10.00,0.00,3.00,56.00,60.00,4.00,84.00,TARP,DOE-2,21.00,40.00,32.00,8.00,6,1,0,Yes
 Zone Information, THERMAL ZONE 31,0.0,0.00,0.00,4.00,1.16,5.00,6.00,1,1,1,0.00,3.00,0.00,10.00,4.00,8.00,4.00,84.00,TARP,DOE-2,21.00,40.00,32.00,8.00,6,1,0,Yes
 Zone Information, THERMAL ZONE 22,0.0,0.00,0.00,64.00,5.00,1.16,66.00,1,1,1,0.00,10.00,0.00,3.00,64.00,68.00,4.00,84.00,TARP,DOE-2,21.00,40.00,32.00,8.00,6,1,0,Yes
 Zone Information, THERMAL ZONE 87,0.0,0.00,0.00,56.00,1.16,5.00,58.00,1,1,1,0.00,3.00,0.00,10.00,56.00,60.00,4.00,84.00,TARP,DOE-2,21.00,40.00,32.00,8.00,6,1,0,Yes
 Zone Information, THERMAL ZONE 2,0.0,7.00,3.00,0.00,8.84,5.00,2.00,1,1,1,7.00,10.00,0.00,10.00,0.00,4.00,4.00,84.00,TARP,DOE-2,21.00,40.00,32.00,8.00,6,1,0,Yes
! <Zone Internal Gains/Equipment Information - Nominal>,Zone Name, Floor Area {m2},# Occupants,Area per Occupant {m2/person},Occupant per Area {person/m2},Interior Lighting {W/m2},Electric Load {W/m2},Gas Load {W/m2},Other Load {W/m2},Hot Water Eq {W/m2},Steam Equipment {W/m2},Sum Loads per Area {W/m2},Outdoor Controlled Baseboard Heat
 Zone Internal Gains, THERMAL ZONE 95,21.00,1.1,18.581,5.382E-002,10.764,10.764,0.000,0.000,0.000,0.000,21.528,No
 Zone Internal Gains, THERMAL ZONE 24,21.00,1.1,18.581,5.382E-002,10.764,10.764,0.000,0.000,0.000,0.000,21.528,No
 Zone Internal Gains, THERMAL ZONE 99,16.00,0.9,18.581,5.382E-002,10.764,10.764,0.000,0.000,0.000,0.000,21.528,No
 Zone Internal Gains, THERMAL ZONE 50,21.00,1.1,18.581,5.382E-002,10.764,10.764,0.000,0.000,0.000,0.000,21.528,No
 Zone Internal Gains, THERMAL ZONE 4,21.00,1.1,18.581,5.382E-002,10.764,10.764,0.000,0.000,0.000,0.000,21.528,No
 Zone Internal Gains, THERMAL ZONE 94,16.00,0.9,18.581,5.382E-002,10.764,10.764,0.000,0.000,0.000,0.000,21.528,No
 Zone Internal Gains, THERMAL ZONE 65,21.00,1.1,18.581,5.382E-002,10.764,10.764,0.000,0.000,0.000,0.000,21.528,No
 Zone Internal Gains, THERMAL ZONE 32,16.00,0.9,18.581,5.382E-002,10.764,10.764,0.000,0.000,0.000,0.000,21.528,No
 Zone Internal Gains, THERMAL ZONE 20,16.00,0.9,18.581,5.382E-002,10.764,10.764,0.000,0.000,0.000,0.000,21.528,No
 Zone Internal Gains, THERMAL ZONE 51,21.00,1.1,18.581,5.382E-002,10.764,10.764,0.000,0.000,0.000,0.000,21.528,No
 Zone Internal Gains, THERMAL ZONE 58,21.00,1.1,18.581,5.382E-002,10.764,10.764,0.000,0.000,0.000,0.000,21.528,No
 Zone Internal Gains, THERMAL ZONE 41,21.00,1.1,18.581,5.382E-002,10.764,10.764,0.000,0.000,0.000,0.000,21.528,No
 Zone Internal Gains, THERMAL ZONE 38,16.00,0.9,18.581,5.382E-002,10.764,10.764,0.000,0.000,0.000,0.000,21.528,No
 Zone Internal Gains, THERMAL ZONE 37,21.00,1.1,18.581,5.382E-002,10.764,10.764,0.000,0.000,0.000,0.000,21.528,No
 Zone Internal Gains, THERMAL ZONE 39,16.00,0.9,18.581,5.382E-002,10.764,10.764,0.000,0.000,0.000,0.000,21.528,No
 Zone Internal Gains, THERMAL ZONE 92,21.00,1.1,18.581,5.382E-002,10.764,10.764,0.000,0.000,0.000,0.000,21.528,No
 Zone Internal Gains, THERMAL ZONE 56,21.00,1.1,18.581,5.382E-002,10.764,10.764,0.000,0.000,0.000,0.000,21.528,No
 Zone Internal Gains, THERMAL ZONE 59,21.00,1.1,18.581,5.382E-002,10.764,10.764,0.000,0.000,0.000,0.000,21.528,No
 Zone Internal Gains, THERMAL ZONE 76,21.00,1.1,18.581,5.382E-002,10.764,10.764,0.000,0.000,0.000,0.000,21.528,No
 Zone Internal Gains, THERMAL ZONE 77,16.00,0.9,18.581,5.382E-002,10.764,10.764,0.000,0.000,0.000,0.000,21.528,No
 Zone Internal Gains, THERMAL ZONE 93,16.00,0.9,18.581,5.382E-002,10.764,10.764,0.000,0.000,0.000,0.000,21.528,No
 Zone Internal Gains, THERMAL ZONE 25,21.00,1.1,18.581,5.382E-002,10.764,10.764,0.000,0.000,0.000,0.000,21.528,No
 Zone Internal Gains, THERMAL ZONE 35,21.00,1.1,18.581,5.382E-002,10.764,10.764,0.000,0.000,0.000,0.000,21.528,No
 Zone Internal Gains, THERMAL ZONE 66,21.00,1.1,18.581,5.382E-002,10.764,10.764,0.000,0.000,0.000,0.000,21.528,No
 Zone Internal Gains, THERMAL ZONE 79,21.00,1.1,18.581,5.382E-002,10.764,10.764,0.000,0.000,0.000,0.000,21.528,No
 Zone Internal Gains, THERMAL ZONE 34,16.00,0.9,18.581,5.382E-002,10.764,10.764,0.000,0.000,0.000,0.000,21.528,No
 Zone Internal Gains, THERMAL ZONE 1,21.00,1.1,18.581,5.382E-002,10.764,10.764,0.000,0.000,0.000,0.000,21.528,No
 Zone Internal Gains, THERMAL ZONE 73,16.00,0.9,18.581,5.382E-002,10.764,10.764,0.000,0.000,0.000,0.000,21.528,No
 Zone Internal Gains, THERMAL ZONE 55,21.00,1.1,18.581,5.382E-002,10.764,10.764,0.000,0.000,0.000,0.000,21.528,No
 Zone Internal Gains, THERMAL ZONE 9,21.00,1.1,18.581,5.382E-002,10.764,10.764,0.000,0.000,0.000,0.000,21.528,No
 Zone Internal Gains, THERMAL ZONE 90,21.00,1.1,18.581,5.382E-002,10.764,10.764,0.000,0.000,0.000,0.000,21.528,No
 Zone Internal Gains, THERMAL ZONE 71,21.00,1.1,18.581,5.382E-002,10.764,10.764,0.000,0.000,0.000,0.000,21.528,No
 Zone Internal Gains, THERMAL ZONE 86,21.00,1.1,18.581,5.382E-002,10.764,10.764,0.000,0.000,0.000,0.000,21.528,No
 Zone Internal Gains, THERMAL ZONE 30,16.00,0.9,18.581,5.382E-002,10.764,10.764,0.000,0.000,0.000,0.000,21.528,No
 Zone Internal Gains, THERMAL ZONE 8,21.00,1.1,18.581,5.382E-002,10.764,10.764,0.000,0.000,0.000,0.000,21.528,No
 Zone Internal Gains, THERMAL ZONE 45,16.00,0.9,18.581,5.382E-002,10.764,10.764,0.000,0.000,0.000,0.000,21.528,No
 Zone Internal Gains, THERMAL ZONE 40,21.00,1.1,18.581,5.382E-002,10.764,10.764,0.000,0.000,0.000,0.000,21.528,No
 Zone Internal Gains, THERMAL ZONE 46,21.00,1.1,18.581,5.382E-002,10.764,10.764,0.000,0.000,0.000,0.000,21.528,No
 Zone Internal Gains, THERMAL ZONE 62,21.00,1.1,18.581,5.382E-002,10.764,10.764,0.000,0.000,0.000,0.000,21.528,No
 Zone Internal Gains, THERMAL ZONE 18,21.00,1.1,18.581,5.382E-002,10.764,10.764,0.000,0.000,0.000,0.000,21.528,No
 Zone Internal Gains, THERMAL ZONE 57,21.00,1.1,18.581,5.382E-002,10.764,10.764,0.000,0.000,0.000,0.000,21.528,No
 Zone Internal Gains, THERMAL ZONE 98,21.00,1.1,18.581,5.382E-002,10.764,10.764,0.000,0.000,0.000,0.000,21.528,No
 Zone Internal Gains, THERMAL ZONE 48,21.00,1.1,18.581,5.382E-002,10.764,10.764,0.000,0.000,0.000,0.000,21.528,No
 Zone Internal Gains, THERMAL ZONE 21,16.00,0.9,18.581,5.382E-002,10.764,10.764,0.000,0.000,0.000,0.000,21.528,No
 Zone Internal Gains, THERMAL ZONE 7,16.00,0.9,18.581,5.382E-002,10.764,10.764,0.000,0.000,0.000,0.000,21.528,No
 Zone Internal Gains, THERMAL ZONE 85,21.00,1.1,18.581,5.382E-002,10.764,10.764,0.000,0.000,0.000,0.000,21.528,No
 Zone Internal Gains, THERMAL ZONE 60,21.00,1.1,18.581,5.382E-002,10.764,10.764,0.000,0.000,0.000,0.000,21.528,No
 Zone Internal Gains, THERMAL ZONE 43,21.00,1.1,18.581,5.382E-002,10.764,10.764,0.000,0.000,0.000,0.000,21.528,No
 Zone Internal Gains, THERMAL ZONE 19,21.00,1.1,18.581,5.382E-002,10.764,10.764,0.000,0.000,0.000,0.000,21.528,No
 Zone Internal Gains, THERMAL ZONE 89,21.00,1.1,18.581,5.382E-002,10.764,10.764,0.000,0.000,0.000,0.000,21.528,No
 Zone Internal Gains, THERMAL ZONE 53,16.00,0.9,18.581,5.382E-002,10.764,10.764,0.000,0.000,0.000,0.000,21.528,No
 Zone Internal Gains, THERMAL ZONE 80,21.00,1.1,18.581,5.382E-002,10.764,10.764,0.000,0.000,0.000,0.000,21.528,No
 Zone Internal Gains, THERMAL ZONE 78,21.00,1.1,18.581,5.382E-002,10.764,10.764,0.000,0.000,0.000,0.000,21.528,No
 Zone Internal Gains, THERMAL ZONE 69,21.00,1.1,18.581,5.382E-002,10.764,10.764,0.000,0.000,0.000,0.000,21.528,No
 Zone Internal Gains, THERMAL ZONE 28,21.00,1.1,18.581,5.382E-002,10.764,10.764,0.000,0.000,0.000,0.000,21.528,No
 Zone Internal Gains, THERMAL ZONE 10,21.00,1.1,18.581,5.382E-002,10.764,10.764,0.000,0.000,0.000,0.000,21.528,No
 Zone Internal Gains, THERMAL ZONE 5,21.00,1.1,18.581,5.382E-002,10.764,10.764,0.000,0.000,0.000,0.000,21.528,No
 Zone Internal Gains, THERMAL ZONE 27,21.00,1.1,18.581,5.382E-002,10.764,10.764,0.000,0.000,0.000,0.000,21.528,No
 Zone Internal Gains, THERMAL ZONE 81,21.00,1.1,18.581,5.382E-002,10.764,10.764,0.000,0.000,0.000,0.000,21.528,No
 Zone Internal Gains, THERMAL ZONE 68,21.00,1.1,18.581,5.382E-002,10.764,10.764,0.000,0.000,0.000,0.000,21.528,No
 Zone Internal Gains, THERMAL ZONE 67,21.00,1.1,18.581,5.382E-002,10.764,10.764,0.000,0.000,0.000,0.000,21.528,No
 Zone Internal Gains, THERMAL ZONE 61,21.00,1.1,18.581,5.382E-002,10.764,10.764,0.000,0.000,0.000,0.000,21.528,No
 Zone Internal Gains, THERMAL ZONE 100,21.00,1.1,18.581,5.382E-002,10.764,10.764,0.000,0.000,0.000,0.000,21.528,No
 Zone Internal Gains, THERMAL ZONE 91,21.00,1.1,18.581,5.382E-002,10.764,10.764,0.000,0.000,0.000,0.000,21.528,No
 Zone Internal Gains, THERMAL ZONE 75,16.00,0.9,18.581,5.382E-002,10.764,10.764,0.000,0.000,0.000,0.000,21.528,No
 Zone Internal Gains, THERMAL ZONE 36,21.00,1.1,18.581,5.382E-002,10.764,10.764,0.000,0.000,0.000,0.000,21.528,No
 Zone Internal Gains, THERMAL ZONE 15,21.00,1.1,18.581,5.382E-002,10.764,10.764,0.000,0.000,0.000,0.000,21.528,No
 Zone Internal Gains, THERMAL ZONE 88,21.00,1.1,18.581,5.382E-002,10.764,10.764,0.000,0.000,0.000,0.000,21.528,No
 Zone Internal Gains, THERMAL ZONE 16,21.00,1.1,18.581,5.382E-002,10.764,10.764,0.000,0.000,0.000,0.000,21.528,No
 Zone Internal Gains, THERMAL ZONE 11,21.00,1.1,18.581,5.382E-002,10.764,10.764,0.000,0.000,0.000,0.000,21.528,No
 Zone Internal Gains, THERMAL ZONE 44,21.00,1.1,18.581,5.382E-002,10.764,10.764,0.000,0.000,0.000,0.000,21.528,No
 Zone Internal Gains, THERMAL ZONE 70,21.00,1.1,18.581,5.382E-002,10.764,10.764,0.000,0.000,0.000,0.000,21.528,No
 Zone Internal Gains, THERMAL ZONE 97,21.00,1.1,18.581,5.382E-002,10.764,10.764,0.000,0.000,0.000,0.000,21.528,No
 Zone Internal Gains, THERMAL ZONE 84,21.00,1.1,18.581,5.382E-002,10.764,10.764,0.000,0.000,0.000,0.000,21.528,No
 Zone Internal Gains, THERMAL ZONE 14,16.00,0.9,18.581,5.382E-002,10.764,10.764,0.000,0.000,0.000,0.000,21.528,No
 Zone Internal Gains, THERMAL ZONE 12,16.00,0.9,18.581,5.382E-002,10.764,10.764,0.000,0.000,0.000,0.000,21.528,No
 Zone Internal Gains, THERMAL ZONE 83,21.00,1.1,18.581,5.382E-002,10.764,10.764,0.000,0.000,0.000,0.000,21.528,No
 Zone Internal Gains, THERMAL ZONE 52,21.00,1.1,18.581,5.382E-002,10.764,10.764,0.000,0.000,0.000,0.000,21.528,No
 Zone Internal Gains, THERMAL ZONE 33,21.00,1.1,18.581,5.382E-002,10.764,10.764,0.000,0.000,0.000,0.000,21.528,No
 Zone Internal Gains, THERMAL ZONE 82,21.00,1.1,18.581,5.382E-002,10.764,10.764,0.000,0.000,0.000,0.000,21.528,No
 Zone Internal Gains, THERMAL ZONE 3,21.00,1.1,18.581,5.382E-002,10.764,10.764,0.000,0.000,0.000,0.000,21.528,No
 Zone Internal Gains, THERMAL ZONE 49,21.00,1.1,18.581,5.382E-002,10.764,10.764,0.000,0.000,0.000,0.000,21.528,No
 Zone Internal Gains, THERMAL ZONE 13,21.00,1.1,18.581,5.382E-002,10.764,10.764,0.000,0.000,0.000,0.000,21.528,No
 Zone Internal Gains, THERMAL ZONE 42,16.00,0.9,18.581,5.382E-002,10.764,10.764,0.000,0.000,0.000,0.000,21.528,No
 Zone Internal Gains, THERMAL ZONE 47,21.00,1.1,18.581,5.382E-002,10.764,10.764,0.000,0.000,0.000,0.000,21.528,No
 Zone Internal Gains, THERMAL ZONE 64,21.00,1.1,18.581,5.382E-002,10.764,10.764,0.000,0.000,0.000,0.000,21.528,No
 Zone Internal Gains, THERMAL ZONE 54,21.00,1.1,18.581,5.382E-002,10.764,10.764,0.000,0.000,0.000,0.000,21.528,No
 Zone Internal Gains, THERMAL ZONE 74,16.00,0.9,18.581,5.382E-002,10.764,10.764,0.000,0.000,0.000,0.000,21.528,No
 Zone Internal Gains, THERMAL ZONE 6,21.00,1.1,18.581,5.382E-002,10.764,10.764,0.000,0.000,0.000,0.000,21.528,No
 Zone Internal Gains, THERMAL ZONE 23,21.00,1.1,18.581,5.382E-002,10.764,10.764,0.000,0.000,0.000,0.000,21.528,No
 Zone Internal Gains, THERMAL ZONE 63,21.00,1.1,18.581,5.382E-002,10.764,10.764,0.000,0.000,0.000,0.000,21.528,No
 Zone Internal Gains, THERMAL ZONE 29,21.00,1.1,18.581,5.382E-002,10.764,10.764,0.000,0.000,0.000,0.000,21.528,No
 Zone Internal Gains, THERMAL ZONE 96,21.00,1.1,18.581,5.382E-002,10.764,10.764,0.000,0.000,0.000,0.000,21.528,No
 Zone Internal Gains, THERMAL ZONE 26,21.00,1.1,18.581,5.382E-002,10.764,10.764,0.000,0.000,0.000,0.000,21.528,No
 Zone Internal Gains, THERMAL ZONE 17,21.00,1.1,18.581,5.382E-002,10.764,10.764,0.000,0.000,0.000,0.000,21.528,No
 Zone Internal Gains, THERMAL ZONE 72,21.00,1.1,18.581,5.382E-002,10.764,10.764,0.000,0.000,0.000,0.000,21.528,No
 Zone Internal Gains, THERMAL ZONE 31,21.00,1.1,18.581,5.382E-002,10.764,10.764,0.000,0.000,0.000,0.000,21.528,No
 Zone Internal Gains, THERMAL ZONE 22,21.00,1.1,18.581,5.382E-002,10.764,10.764,0.000,0.000,0.000,0.000,21.528,No
 Zone Internal Gains, THERMAL ZONE 87,21.00,1.1,18.581,5.382E-002,10.764,10.764,0.000,0.000,0.000,0.000,21.528,No
 Zone Internal Gains, THERMAL ZONE 2,21.00,1.1,18.581,5.382E-002,10.764,10.764,0.000,0.000,0.000,0.000,21.528,No
! <People Internal Gains - Nominal>,Name,Schedule Name,Zone Name,Zone Floor Area {m2},# Zone Occupants,Number of People {},People/Floor Area {person/m2},Floor Area per person {m2/person},Fraction Radiant,Fraction Convected,Sensible Fraction Calculation,Activity level,ASHRAE 55 Warnings,Carbon Dioxide Generation Rate 
 People Internal Gains, THERMAL ZONE 1 ASHRAE_90.1-2004 CLIMATEZONE 1-8 MEDIUMOFFICE WHOLEBUILDING PEOPLE,MEDIUM OFFICE_BLDG_OCC,THERMAL ZONE 1,21.00,1.1,1.1,5.382E-002,18.581,0.300,0.700,AutoCalculate,MEDIUM OFFICE_ACTIVITY,No,3.8200E-008
 People Internal Gains, THERMAL ZONE 10 ASHRAE_90.1-2004 CLIMATEZONE 1-8 MEDIUMOFFICE WHOLEBUILDING PEOPLE,MEDIUM OFFICE_BLDG_OCC,THERMAL ZONE 10,21.00,1.1,1.1,5.382E-002,18.581,0.300,0.700,AutoCalculate,MEDIUM OFFICE_ACTIVITY,No,3.8200E-008
 People Internal Gains, THERMAL ZONE 100 ASHRAE_90.1-2004 CLIMATEZONE 1-8 MEDIUMOFFICE WHOLEBUILDING PEOPLE,MEDIUM OFFICE_BLDG_OCC,THERMAL ZONE 100,21.00,1.1,1.1,5.382E-002,18.581,0.300,0.700,AutoCalculate,MEDIUM OFFICE_ACTIVITY,No,3.8200E-008
 People Internal Gains, THERMAL ZONE 11 ASHRAE_90.1-2004 CLIMATEZONE 1-8 MEDIUMOFFICE WHOLEBUILDING PEOPLE,MEDIUM OFFICE_BLDG_OCC,THERMAL ZONE 11,21.00,1.1,1.1,5.382E-002,18.581,0.300,0.700,AutoCalculate,MEDIUM OFFICE_ACTIVITY,No,3.8200E-008
 People Internal Gains, THERMAL ZONE 12 ASHRAE_90.1-2004 CLIMATEZONE 1-8 MEDIUMOFFICE WHOLEBUILDING PEOPLE,MEDIUM OFFICE_BLDG_OCC,THERMAL ZONE 12,16.00,0.9,0.9,5.382E-002,18.581,0.300,0.700,AutoCalculate,MEDIUM OFFICE_ACTIVITY,No,3.8200E-008
 People Internal Gains, THERMAL ZONE 13 ASHRAE_90.1-2004 CLIMATEZONE 1-8 MEDIUMOFFICE WHOLEBUILDING PEOPLE,MEDIUM OFFICE_BLDG_OCC,THERMAL ZONE 13,21.00,1.1,1.1,5.382E-002,18.581,0.300,0.700,AutoCalculate,MEDIUM OFFICE_ACTIVITY,No,3.8200E-008
 People Internal Gains, THERMAL ZONE 14 ASHRAE_90.1-2004 CLIMATEZONE 1-8 MEDIUMOFFICE WHOLEBUILDING PEOPLE,MEDIUM OFFICE_BLDG_OCC,THERMAL ZONE 14,16.00,0.9,0.9,5.382E-002,18.581,0.300,0.700,AutoCalculate,MEDIUM OFFICE_ACTIVITY,No,3.8200E-008
 People Internal Gains, THERMAL ZONE 15 ASHRAE_90.1-2004 CLIMATEZONE 1-8 MEDIUMOFFICE WHOLEBUILDING PEOPLE,MEDIUM OFFICE_BLDG_OCC,THERMAL ZONE 15,21.00,1.1,1.1,5.382E-002,18.581,0.300,0.700,AutoCalculate,MEDIUM OFFICE_ACTIVITY,No,3.8200E-008
 People Internal Gains, THERMAL ZONE 16 ASHRAE_90.1-2004 CLIMATEZONE 1-8 MEDIUMOFFICE WHOLEBUILDING PEOPLE,MEDIUM OFFICE_BLDG_OCC,THERMAL ZONE 16,21.00,1.1,1.1,5.382E-002,18.581,0.300,0.700,AutoCalculate,MEDIUM OFFICE_ACTIVITY,No,3.8200E-008
 People Internal Gains, THERMAL ZONE 17 ASHRAE_90.1-2004 CLIMATEZONE 1-8 MEDIUMOFFICE WHOLEBUILDING PEOPLE,MEDIUM OFFICE_BLDG_OCC,THERMAL ZONE 17,21.00,1.1,1.1,5.382E-002,18.581,0.300,0.700,AutoCalculate,MEDIUM OFFICE_ACTIVITY,No,3.8200E-008
 People Internal Gains, THERMAL ZONE 18 ASHRAE_90.1-2004 CLIMATEZONE 1-8 MEDIUMOFFICE WHOLEBUILDING PEOPLE,MEDIUM OFFICE_BLDG_OCC,THERMAL ZONE 18,21.00,1.1,1.1,5.382E-002,18.581,0.300,0.700,AutoCalculate,MEDIUM OFFICE_ACTIVITY,No,3.8200E-008
 People Internal Gains, THERMAL ZONE 19 ASHRAE_90.1-2004 CLIMATEZONE 1-8 MEDIUMOFFICE WHOLEBUILDING PEOPLE,MEDIUM OFFICE_BLDG_OCC,THERMAL ZONE 19,21.00,1.1,1.1,5.382E-002,18.581,0.300,0.700,AutoCalculate,MEDIUM OFFICE_ACTIVITY,No,3.8200E-008
 People Internal Gains, THERMAL ZONE 2 ASHRAE_90.1-2004 CLIMATEZONE 1-8 MEDIUMOFFICE WHOLEBUILDING PEOPLE,MEDIUM OFFICE_BLDG_OCC,THERMAL ZONE 2,21.00,1.1,1.1,5.382E-002,18.581,0.300,0.700,AutoCalculate,MEDIUM OFFICE_ACTIVITY,No,3.8200E-008
 People Internal Gains, THERMAL ZONE 20 ASHRAE_90.1-2004 CLIMATEZONE 1-8 MEDIUMOFFICE WHOLEBUILDING PEOPLE,MEDIUM OFFICE_BLDG_OCC,THERMAL ZONE 20,16.00,0.9,0.9,5.382E-002,18.581,0.300,0.700,AutoCalculate,MEDIUM OFFICE_ACTIVITY,No,3.8200E-008
 People Internal Gains, THERMAL ZONE 21 ASHRAE_90.1-2004 CLIMATEZONE 1-8 MEDIUMOFFICE WHOLEBUILDING PEOPLE,MEDIUM OFFICE_BLDG_OCC,THERMAL ZONE 21,16.00,0.9,0.9,5.382E-002,18.581,0.300,0.700,AutoCalculate,MEDIUM OFFICE_ACTIVITY,No,3.8200E-008
 People Internal Gains, THERMAL ZONE 22 ASHRAE_90.1-2004 CLIMATEZONE 1-8 MEDIUMOFFICE WHOLEBUILDING PEOPLE,MEDIUM OFFICE_BLDG_OCC,THERMAL ZONE 22,21.00,1.1,1.1,5.382E-002,18.581,0.300,0.700,AutoCalculate,MEDIUM OFFICE_ACTIVITY,No,3.8200E-008
 People Internal Gains, THERMAL ZONE 23 ASHRAE_90.1-2004 CLIMATEZONE 1-8 MEDIUMOFFICE WHOLEBUILDING PEOPLE,MEDIUM OFFICE_BLDG_OCC,THERMAL ZONE 23,21.00,1.1,1.1,5.382E-002,18.581,0.300,0.700,AutoCalculate,MEDIUM OFFICE_ACTIVITY,No,3.8200E-008
 People Internal Gains, THERMAL ZONE 24 ASHRAE_90.1-2004 CLIMATEZONE 1-8 MEDIUMOFFICE WHOLEBUILDING PEOPLE,MEDIUM OFFICE_BLDG_OCC,THERMAL ZONE 24,21.00,1.1,1.1,5.382E-002,18.581,0.300,0.700,AutoCalculate,MEDIUM OFFICE_ACTIVITY,No,3.8200E-008
 People Internal Gains, THERMAL ZONE 25 ASHRAE_90.1-2004 CLIMATEZONE 1-8 MEDIUMOFFICE WHOLEBUILDING PEOPLE,MEDIUM OFFICE_BLDG_OCC,THERMAL ZONE 25,21.00,1.1,1.1,5.382E-002,18.581,0.300,0.700,AutoCalculate,MEDIUM OFFICE_ACTIVITY,No,3.8200E-008
 People Internal Gains, THERMAL ZONE 26 ASHRAE_90.1-2004 CLIMATEZONE 1-8 MEDIUMOFFICE WHOLEBUILDING PEOPLE,MEDIUM OFFICE_BLDG_OCC,THERMAL ZONE 26,21.00,1.1,1.1,5.382E-002,18.581,0.300,0.700,AutoCalculate,MEDIUM OFFICE_ACTIVITY,No,3.8200E-008
 People Internal Gains, THERMAL ZONE 27 ASHRAE_90.1-2004 CLIMATEZONE 1-8 MEDIUMOFFICE WHOLEBUILDING PEOPLE,MEDIUM OFFICE_BLDG_OCC,THERMAL ZONE 27,21.00,1.1,1.1,5.382E-002,18.581,0.300,0.700,AutoCalculate,MEDIUM OFFICE_ACTIVITY,No,3.8200E-008
 People Internal Gains, THERMAL ZONE 28 ASHRAE_90.1-2004 CLIMATEZONE 1-8 MEDIUMOFFICE WHOLEBUILDING PEOPLE,MEDIUM OFFICE_BLDG_OCC,THERMAL ZONE 28,21.00,1.1,1.1,5.382E-002,18.581,0.300,0.700,AutoCalculate,MEDIUM OFFICE_ACTIVITY,No,3.8200E-008
 People Internal Gains, THERMAL ZONE 29 ASHRAE_90.1-2004 CLIMATEZONE 1-8 MEDIUMOFFICE WHOLEBUILDING PEOPLE,MEDIUM OFFICE_BLDG_OCC,THERMAL ZONE 29,21.00,1.1,1.1,5.382E-002,18.581,0.300,0.700,AutoCalculate,MEDIUM OFFICE_ACTIVITY,No,3.8200E-008
 People Internal Gains, THERMAL ZONE 3 ASHRAE_90.1-2004 CLIMATEZONE 1-8 MEDIUMOFFICE WHOLEBUILDING PEOPLE,MEDIUM OFFICE_BLDG_OCC,THERMAL ZONE 3,21.00,1.1,1.1,5.382E-002,18.581,0.300,0.700,AutoCalculate,MEDIUM OFFICE_ACTIVITY,No,3.8200E-008
 People Internal Gains, THERMAL ZONE 30 ASHRAE_90.1-2004 CLIMATEZONE 1-8 MEDIUMOFFICE WHOLEBUILDING PEOPLE,MEDIUM OFFICE_BLDG_OCC,THERMAL ZONE 30,16.00,0.9,0.9,5.382E-002,18.581,0.300,0.700,AutoCalculate,MEDIUM OFFICE_ACTIVITY,No,3.8200E-008
 People Internal Gains, THERMAL ZONE 31 ASHRAE_90.1-2004 CLIMATEZONE 1-8 MEDIUMOFFICE WHOLEBUILDING PEOPLE,MEDIUM OFFICE_BLDG_OCC,THERMAL ZONE 31,21.00,1.1,1.1,5.382E-002,18.581,0.300,0.700,AutoCalculate,MEDIUM OFFICE_ACTIVITY,No,3.8200E-008
 People Internal Gains, THERMAL ZONE 32 ASHRAE_90.1-2004 CLIMATEZONE 1-8 MEDIUMOFFICE WHOLEBUILDING PEOPLE,MEDIUM OFFICE_BLDG_OCC,THERMAL ZONE 32,16.00,0.9,0.9,5.382E-002,18.581,0.300,0.700,AutoCalculate,MEDIUM OFFICE_ACTIVITY,No,3.8200E-008
 People Internal Gains, THERMAL ZONE 33 ASHRAE_90.1-2004 CLIMATEZONE 1-8 MEDIUMOFFICE WHOLEBUILDING PEOPLE,MEDIUM OFFICE_BLDG_OCC,THERMAL ZONE 33,21.00,1.1,1.1,5.382E-002,18.581,0.300,0.700,AutoCalculate,MEDIUM OFFICE_ACTIVITY,No,3.8200E-008
 People Internal Gains, THERMAL ZONE 34 ASHRAE_90.1-2004 CLIMATEZONE 1-8 MEDIUMOFFICE WHOLEBUILDING PEOPLE,MEDIUM OFFICE_BLDG_OCC,THERMAL ZONE 34,16.00,0.9,0.9,5.382E-002,18.581,0.300,0.700,AutoCalculate,MEDIUM OFFICE_ACTIVITY,No,3.8200E-008
 People Internal Gains, THERMAL ZONE 35 ASHRAE_90.1-2004 CLIMATEZONE 1-8 MEDIUMOFFICE WHOLEBUILDING PEOPLE,MEDIUM OFFICE_BLDG_OCC,THERMAL ZONE 35,21.00,1.1,1.1,5.382E-002,18.581,0.300,0.700,AutoCalculate,MEDIUM OFFICE_ACTIVITY,No,3.8200E-008
 People Internal Gains, THERMAL ZONE 36 ASHRAE_90.1-2004 CLIMATEZONE 1-8 MEDIUMOFFICE WHOLEBUILDING PEOPLE,MEDIUM OFFICE_BLDG_OCC,THERMAL ZONE 36,21.00,1.1,1.1,5.382E-002,18.581,0.300,0.700,AutoCalculate,MEDIUM OFFICE_ACTIVITY,No,3.8200E-008
 People Internal Gains, THERMAL ZONE 37 ASHRAE_90.1-2004 CLIMATEZONE 1-8 MEDIUMOFFICE WHOLEBUILDING PEOPLE,MEDIUM OFFICE_BLDG_OCC,THERMAL ZONE 37,21.00,1.1,1.1,5.382E-002,18.581,0.300,0.700,AutoCalculate,MEDIUM OFFICE_ACTIVITY,No,3.8200E-008
 People Internal Gains, THERMAL ZONE 38 ASHRAE_90.1-2004 CLIMATEZONE 1-8 MEDIUMOFFICE WHOLEBUILDING PEOPLE,MEDIUM OFFICE_BLDG_OCC,THERMAL ZONE 38,16.00,0.9,0.9,5.382E-002,18.581,0.300,0.700,AutoCalculate,MEDIUM OFFICE_ACTIVITY,No,3.8200E-008
 People Internal Gains, THERMAL ZONE 39 ASHRAE_90.1-2004 CLIMATEZONE 1-8 MEDIUMOFFICE WHOLEBUILDING PEOPLE,MEDIUM OFFICE_BLDG_OCC,THERMAL ZONE 39,16.00,0.9,0.9,5.382E-002,18.581,0.300,0.700,AutoCalculate,MEDIUM OFFICE_ACTIVITY,No,3.8200E-008
 People Internal Gains, THERMAL ZONE 4 ASHRAE_90.1-2004 CLIMATEZONE 1-8 MEDIUMOFFICE WHOLEBUILDING PEOPLE,MEDIUM OFFICE_BLDG_OCC,THERMAL ZONE 4,21.00,1.1,1.1,5.382E-002,18.581,0.300,0.700,AutoCalculate,MEDIUM OFFICE_ACTIVITY,No,3.8200E-008
 People Internal Gains, THERMAL ZONE 40 ASHRAE_90.1-2004 CLIMATEZONE 1-8 MEDIUMOFFICE WHOLEBUILDING PEOPLE,MEDIUM OFFICE_BLDG_OCC,THERMAL ZONE 40,21.00,1.1,1.1,5.382E-002,18.581,0.300,0.700,AutoCalculate,MEDIUM OFFICE_ACTIVITY,No,3.8200E-008
 People Internal Gains, THERMAL ZONE 41 ASHRAE_90.1-2004 CLIMATEZONE 1-8 MEDIUMOFFICE WHOLEBUILDING PEOPLE,MEDIUM OFFICE_BLDG_OCC,THERMAL ZONE 41,21.00,1.1,1.1,5.382E-002,18.581,0.300,0.700,AutoCalculate,MEDIUM OFFICE_ACTIVITY,No,3.8200E-008
 People Internal Gains, THERMAL ZONE 42 ASHRAE_90.1-2004 CLIMATEZONE 1-8 MEDIUMOFFICE WHOLEBUILDING PEOPLE,MEDIUM OFFICE_BLDG_OCC,THERMAL ZONE 42,16.00,0.9,0.9,5.382E-002,18.581,0.300,0.700,AutoCalculate,MEDIUM OFFICE_ACTIVITY,No,3.8200E-008
 People Internal Gains, THERMAL ZONE 43 ASHRAE_90.1-2004 CLIMATEZONE 1-8 MEDIUMOFFICE WHOLEBUILDING PEOPLE,MEDIUM OFFICE_BLDG_OCC,THERMAL ZONE 43,21.00,1.1,1.1,5.382E-002,18.581,0.300,0.700,AutoCalculate,MEDIUM OFFICE_ACTIVITY,No,3.8200E-008
 People Internal Gains, THERMAL ZONE 44 ASHRAE_90.1-2004 CLIMATEZONE 1-8 MEDIUMOFFICE WHOLEBUILDING PEOPLE,MEDIUM OFFICE_BLDG_OCC,THERMAL ZONE 44,21.00,1.1,1.1,5.382E-002,18.581,0.300,0.700,AutoCalculate,MEDIUM OFFICE_ACTIVITY,No,3.8200E-008
 People Internal Gains, THERMAL ZONE 45 ASHRAE_90.1-2004 CLIMATEZONE 1-8 MEDIUMOFFICE WHOLEBUILDING PEOPLE,MEDIUM OFFICE_BLDG_OCC,THERMAL ZONE 45,16.00,0.9,0.9,5.382E-002,18.581,0.300,0.700,AutoCalculate,MEDIUM OFFICE_ACTIVITY,No,3.8200E-008
 People Internal Gains, THERMAL ZONE 46 ASHRAE_90.1-2004 CLIMATEZONE 1-8 MEDIUMOFFICE WHOLEBUILDING PEOPLE,MEDIUM OFFICE_BLDG_OCC,THERMAL ZONE 46,21.00,1.1,1.1,5.382E-002,18.581,0.300,0.700,AutoCalculate,MEDIUM OFFICE_ACTIVITY,No,3.8200E-008
 People Internal Gains, THERMAL ZONE 47 ASHRAE_90.1-2004 CLIMATEZONE 1-8 MEDIUMOFFICE WHOLEBUILDING PEOPLE,MEDIUM OFFICE_BLDG_OCC,THERMAL ZONE 47,21.00,1.1,1.1,5.382E-002,18.581,0.300,0.700,AutoCalculate,MEDIUM OFFICE_ACTIVITY,No,3.8200E-008
 People Internal Gains, THERMAL ZONE 48 ASHRAE_90.1-2004 CLIMATEZONE 1-8 MEDIUMOFFICE WHOLEBUILDING PEOPLE,MEDIUM OFFICE_BLDG_OCC,THERMAL ZONE 48,21.00,1.1,1.1,5.382E-002,18.581,0.300,0.700,AutoCalculate,MEDIUM OFFICE_ACTIVITY,No,3.8200E-008
 People Internal Gains, THERMAL ZONE 49 ASHRAE_90.1-2004 CLIMATEZONE 1-8 MEDIUMOFFICE WHOLEBUILDING PEOPLE,MEDIUM OFFICE_BLDG_OCC,THERMAL ZONE 49,21.00,1.1,1.1,5.382E-002,18.581,0.300,0.700,AutoCalculate,MEDIUM OFFICE_ACTIVITY,No,3.8200E-008
 People Internal Gains, THERMAL ZONE 5 ASHRAE_90.1-2004 CLIMATEZONE 1-8 MEDIUMOFFICE WHOLEBUILDING PEOPLE,MEDIUM OFFICE_BLDG_OCC,THERMAL ZONE 5,21.00,1.1,1.1,5.382E-002,18.581,0.300,0.700,AutoCalculate,MEDIUM OFFICE_ACTIVITY,No,3.8200E-008
 People Internal Gains, THERMAL ZONE 50 ASHRAE_90.1-2004 CLIMATEZONE 1-8 MEDIUMOFFICE WHOLEBUILDING PEOPLE,MEDIUM OFFICE_BLDG_OCC,THERMAL ZONE 50,21.00,1.1,1.1,5.382E-002,18.581,0.300,0.700,AutoCalculate,MEDIUM OFFICE_ACTIVITY,No,3.8200E-008
 People Internal Gains, THERMAL ZONE 51 ASHRAE_90.1-2004 CLIMATEZONE 1-8 MEDIUMOFFICE WHOLEBUILDING PEOPLE,MEDIUM OFFICE_BLDG_OCC,THERMAL ZONE 51,21.00,1.1,1.1,5.382E-002,18.581,0.300,0.700,AutoCalculate,MEDIUM OFFICE_ACTIVITY,No,3.8200E-008
 People Internal Gains, THERMAL ZONE 52 ASHRAE_90.1-2004 CLIMATEZONE 1-8 MEDIUMOFFICE WHOLEBUILDING PEOPLE,MEDIUM OFFICE_BLDG_OCC,THERMAL ZONE 52,21.00,1.1,1.1,5.382E-002,18.581,0.300,0.700,AutoCalculate,MEDIUM OFFICE_ACTIVITY,No,3.8200E-008
 People Internal Gains, THERMAL ZONE 53 ASHRAE_90.1-2004 CLIMATEZONE 1-8 MEDIUMOFFICE WHOLEBUILDING PEOPLE,MEDIUM OFFICE_BLDG_OCC,THERMAL ZONE 53,16.00,0.9,0.9,5.382E-002,18.581,0.300,0.700,AutoCalculate,MEDIUM OFFICE_ACTIVITY,No,3.8200E-008
 People Internal Gains, THERMAL ZONE 54 ASHRAE_90.1-2004 CLIMATEZONE 1-8 MEDIUMOFFICE WHOLEBUILDING PEOPLE,MEDIUM OFFICE_BLDG_OCC,THERMAL ZONE 54,21.00,1.1,1.1,5.382E-002,18.581,0.300,0.700,AutoCalculate,MEDIUM OFFICE_ACTIVITY,No,3.8200E-008
 People Internal Gains, THERMAL ZONE 55 ASHRAE_90.1-2004 CLIMATEZONE 1-8 MEDIUMOFFICE WHOLEBUILDING PEOPLE,MEDIUM OFFICE_BLDG_OCC,THERMAL ZONE 55,21.00,1.1,1.1,5.382E-002,18.581,0.300,0.700,AutoCalculate,MEDIUM OFFICE_ACTIVITY,No,3.8200E-008
 People Internal Gains, THERMAL ZONE 56 ASHRAE_90.1-2004 CLIMATEZONE 1-8 MEDIUMOFFICE WHOLEBUILDING PEOPLE,MEDIUM OFFICE_BLDG_OCC,THERMAL ZONE 56,21.00,1.1,1.1,5.382E-002,18.581,0.300,0.700,AutoCalculate,MEDIUM OFFICE_ACTIVITY,No,3.8200E-008
 People Internal Gains, THERMAL ZONE 57 ASHRAE_90.1-2004 CLIMATEZONE 1-8 MEDIUMOFFICE WHOLEBUILDING PEOPLE,MEDIUM OFFICE_BLDG_OCC,THERMAL ZONE 57,21.00,1.1,1.1,5.382E-002,18.581,0.300,0.700,AutoCalculate,MEDIUM OFFICE_ACTIVITY,No,3.8200E-008
 People Internal Gains, THERMAL ZONE 58 ASHRAE_90.1-2004 CLIMATEZONE 1-8 MEDIUMOFFICE WHOLEBUILDING PEOPLE,MEDIUM OFFICE_BLDG_OCC,THERMAL ZONE 58,21.00,1.1,1.1,5.382E-002,18.581,0.300,0.700,AutoCalculate,MEDIUM OFFICE_ACTIVITY,No,3.8200E-008
 People Internal Gains, THERMAL ZONE 59 ASHRAE_90.1-2004 CLIMATEZONE 1-8 MEDIUMOFFICE WHOLEBUILDING PEOPLE,MEDIUM OFFICE_BLDG_OCC,THERMAL ZONE 59,21.00,1.1,1.1,5.382E-002,18.581,0.300,0.700,AutoCalculate,MEDIUM OFFICE_ACTIVITY,No,3.8200E-008
 People Internal Gains, THERMAL ZONE 6 ASHRAE_90.1-2004 CLIMATEZONE 1-8 MEDIUMOFFICE WHOLEBUILDING PEOPLE,MEDIUM OFFICE_BLDG_OCC,THERMAL ZONE 6,21.00,1.1,1.1,5.382E-002,18.581,0.300,0.700,AutoCalculate,MEDIUM OFFICE_ACTIVITY,No,3.8200E-008
 People Internal Gains, THERMAL ZONE 60 ASHRAE_90.1-2004 CLIMATEZONE 1-8 MEDIUMOFFICE WHOLEBUILDING PEOPLE,MEDIUM OFFICE_BLDG_OCC,THERMAL ZONE 60,21.00,1.1,1.1,5.382E-002,18.581,0.300,0.700,AutoCalculate,MEDIUM OFFICE_ACTIVITY,No,3.8200E-008
 People Internal Gains, THERMAL ZONE 61 ASHRAE_90.1-2004 CLIMATEZONE 1-8 MEDIUMOFFICE WHOLEBUILDING PEOPLE,MEDIUM OFFICE_BLDG_OCC,THERMAL ZONE 61,21.00,1.1,1.1,5.382E-002,18.581,0.300,0.700,AutoCalculate,MEDIUM OFFICE_ACTIVITY,No,3.8200E-008
 People Internal Gains, THERMAL ZONE 62 ASHRAE_90.1-2004 CLIMATEZONE 1-8 MEDIUMOFFICE WHOLEBUILDING PEOPLE,MEDIUM OFFICE_BLDG_OCC,THERMAL ZONE 62,21.00,1.1,1.1,5.382E-002,18.581,0.300,0.700,AutoCalculate,MEDIUM OFFICE_ACTIVITY,No,3.8200E-008
 People Internal Gains, THERMAL ZONE 63 ASHRAE_90.1-2004 CLIMATEZONE 1-8 MEDIUMOFFICE WHOLEBUILDING PEOPLE,MEDIUM OFFICE_BLDG_OCC,THERMAL ZONE 63,21.00,1.1,1.1,5.382E-002,18.581,0.300,0.700,AutoCalculate,MEDIUM OFFICE_ACTIVITY,No,3.8200E-008
 People Internal Gains, THERMAL ZONE 64 ASHRAE_90.1-2004 CLIMATEZONE 1-8 MEDIUMOFFICE WHOLEBUILDING PEOPLE,MEDIUM OFFICE_BLDG_OCC,THERMAL ZONE 64,21.00,1.1,1.1,5.382E-002,18.581,0.300,0.700,AutoCalculate,MEDIUM OFFICE_ACTIVITY,No,3.8200E-008
 People Internal Gains, THERMAL ZONE 65 ASHRAE_90.1-2004 CLIMATEZONE 1-8 MEDIUMOFFICE WHOLEBUILDING PEOPLE,MEDIUM OFFICE_BLDG_OCC,THERMAL ZONE 65,21.00,1.1,1.1,5.382E-002,18.581,0.300,0.700,AutoCalculate,MEDIUM OFFICE_ACTIVITY,No,3.8200E-008
 People Internal Gains, THERMAL ZONE 66 ASHRAE_90.1-2004 CLIMATEZONE 1-8 MEDIUMOFFICE WHOLEBUILDING PEOPLE,MEDIUM OFFICE_BLDG_OCC,THERMAL ZONE 66,21.00,1.1,1.1,5.382E-002,18.581,0.300,0.700,AutoCalculate,MEDIUM OFFICE_ACTIVITY,No,3.8200E-008
 People Internal Gains, THERMAL ZONE 67 ASHRAE_90.1-2004 CLIMATEZONE 1-8 MEDIUMOFFICE WHOLEBUILDING PEOPLE,MEDIUM OFFICE_BLDG_OCC,THERMAL ZONE 67,21.00,1.1,1.1,5.382E-002,18.581,0.300,0.700,AutoCalculate,MEDIUM OFFICE_ACTIVITY,No,3.8200E-008
 People Internal Gains, THERMAL ZONE 68 ASHRAE_90.1-2004 CLIMATEZONE 1-8 MEDIUMOFFICE WHOLEBUILDING PEOPLE,MEDIUM OFFICE_BLDG_OCC,THERMAL ZONE 68,21.00,1.1,1.1,5.382E-002,18.581,0.300,0.700,AutoCalculate,MEDIUM OFFICE_ACTIVITY,No,3.8200E-008
 People Internal Gains, THERMAL ZONE 69 ASHRAE_90.1-2004 CLIMATEZONE 1-8 MEDIUMOFFICE WHOLEBUILDING PEOPLE,MEDIUM OFFICE_BLDG_OCC,THERMAL ZONE 69,21.00,1.1,1.1,5.382E-002,18.581,0.300,0.700,AutoCalculate,MEDIUM OFFICE_ACTIVITY,No,3.8200E-008
 People Internal Gains, THERMAL ZONE 7 ASHRAE_90.1-2004 CLIMATEZONE 1-8 MEDIUMOFFICE WHOLEBUILDING PEOPLE,MEDIUM OFFICE_BLDG_OCC,THERMAL ZONE 7,16.00,0.9,0.9,5.382E-002,18.581,0.300,0.700,AutoCalculate,MEDIUM OFFICE_ACTIVITY,No,3.8200E-008
 People Internal Gains, THERMAL ZONE 70 ASHRAE_90.1-2004 CLIMATEZONE 1-8 MEDIUMOFFICE WHOLEBUILDING PEOPLE,MEDIUM OFFICE_BLDG_OCC,THERMAL ZONE 70,21.00,1.1,1.1,5.382E-002,18.581,0.300,0.700,AutoCalculate,MEDIUM OFFICE_ACTIVITY,No,3.8200E-008
 People Internal Gains, THERMAL ZONE 71 ASHRAE_90.1-2004 CLIMATEZONE 1-8 MEDIUMOFFICE WHOLEBUILDING PEOPLE,MEDIUM OFFICE_BLDG_OCC,THERMAL ZONE 71,21.00,1.1,1.1,5.382E-002,18.581,0.300,0.700,AutoCalculate,MEDIUM OFFICE_ACTIVITY,No,3.8200E-008
 People Internal Gains, THERMAL ZONE 72 ASHRAE_90.1-2004 CLIMATEZONE 1-8 MEDIUMOFFICE WHOLEBUILDING PEOPLE,MEDIUM OFFICE_BLDG_OCC,THERMAL ZONE 72,21.00,1.1,1.1,5.382E-002,18.581,0.300,0.700,AutoCalculate,MEDIUM OFFICE_ACTIVITY,No,3.8200E-008
 People Internal Gains, THERMAL ZONE 73 ASHRAE_90.1-2004 CLIMATEZONE 1-8 MEDIUMOFFICE WHOLEBUILDING PEOPLE,MEDIUM OFFICE_BLDG_OCC,THERMAL ZONE 73,16.00,0.9,0.9,5.382E-002,18.581,0.300,0.700,AutoCalculate,MEDIUM OFFICE_ACTIVITY,No,3.8200E-008
 People Internal Gains, THERMAL ZONE 74 ASHRAE_90.1-2004 CLIMATEZONE 1-8 MEDIUMOFFICE WHOLEBUILDING PEOPLE,MEDIUM OFFICE_BLDG_OCC,THERMAL ZONE 74,16.00,0.9,0.9,5.382E-002,18.581,0.300,0.700,AutoCalculate,MEDIUM OFFICE_ACTIVITY,No,3.8200E-008
 People Internal Gains, THERMAL ZONE 75 ASHRAE_90.1-2004 CLIMATEZONE 1-8 MEDIUMOFFICE WHOLEBUILDING PEOPLE,MEDIUM OFFICE_BLDG_OCC,THERMAL ZONE 75,16.00,0.9,0.9,5.382E-002,18.581,0.300,0.700,AutoCalculate,MEDIUM OFFICE_ACTIVITY,No,3.8200E-008
 People Internal Gains, THERMAL ZONE 76 ASHRAE_90.1-2004 CLIMATEZONE 1-8 MEDIUMOFFICE WHOLEBUILDING PEOPLE,MEDIUM OFFICE_BLDG_OCC,THERMAL ZONE 76,21.00,1.1,1.1,5.382E-002,18.581,0.300,0.700,AutoCalculate,MEDIUM OFFICE_ACTIVITY,No,3.8200E-008
 People Internal Gains, THERMAL ZONE 77 ASHRAE_90.1-2004 CLIMATEZONE 1-8 MEDIUMOFFICE WHOLEBUILDING PEOPLE,MEDIUM OFFICE_BLDG_OCC,THERMAL ZONE 77,16.00,0.9,0.9,5.382E-002,18.581,0.300,0.700,AutoCalculate,MEDIUM OFFICE_ACTIVITY,No,3.8200E-008
 People Internal Gains, THERMAL ZONE 78 ASHRAE_90.1-2004 CLIMATEZONE 1-8 MEDIUMOFFICE WHOLEBUILDING PEOPLE,MEDIUM OFFICE_BLDG_OCC,THERMAL ZONE 78,21.00,1.1,1.1,5.382E-002,18.581,0.300,0.700,AutoCalculate,MEDIUM OFFICE_ACTIVITY,No,3.8200E-008
 People Internal Gains, THERMAL ZONE 79 ASHRAE_90.1-2004 CLIMATEZONE 1-8 MEDIUMOFFICE WHOLEBUILDING PEOPLE,MEDIUM OFFICE_BLDG_OCC,THERMAL ZONE 79,21.00,1.1,1.1,5.382E-002,18.581,0.300,0.700,AutoCalculate,MEDIUM OFFICE_ACTIVITY,No,3.8200E-008
 People Internal Gains, THERMAL ZONE 8 ASHRAE_90.1-2004 CLIMATEZONE 1-8 MEDIUMOFFICE WHOLEBUILDING PEOPLE,MEDIUM OFFICE_BLDG_OCC,THERMAL ZONE 8,21.00,1.1,1.1,5.382E-002,18.581,0.300,0.700,AutoCalculate,MEDIUM OFFICE_ACTIVITY,No,3.8200E-008
 People Internal Gains, THERMAL ZONE 80 ASHRAE_90.1-2004 CLIMATEZONE 1-8 MEDIUMOFFICE WHOLEBUILDING PEOPLE,MEDIUM OFFICE_BLDG_OCC,THERMAL ZONE 80,21.00,1.1,1.1,5.382E-002,18.581,0.300,0.700,AutoCalculate,MEDIUM OFFICE_ACTIVITY,No,3.8200E-008
 People Internal Gains, THERMAL ZONE 81 ASHRAE_90.1-2004 CLIMATEZONE 1-8 MEDIUMOFFICE WHOLEBUILDING PEOPLE,MEDIUM OFFICE_BLDG_OCC,THERMAL ZONE 81,21.00,1.1,1.1,5.382E-002,18.581,0.300,0.700,AutoCalculate,MEDIUM OFFICE_ACTIVITY,No,3.8200E-008
 People Internal Gains, THERMAL ZONE 82 ASHRAE_90.1-2004 CLIMATEZONE 1-8 MEDIUMOFFICE WHOLEBUILDING PEOPLE,MEDIUM OFFICE_BLDG_OCC,THERMAL ZONE 82,21.00,1.1,1.1,5.382E-002,18.581,0.300,0.700,AutoCalculate,MEDIUM OFFICE_ACTIVITY,No,3.8200E-008
 People Internal Gains, THERMAL ZONE 83 ASHRAE_90.1-2004 CLIMATEZONE 1-8 MEDIUMOFFICE WHOLEBUILDING PEOPLE,MEDIUM OFFICE_BLDG_OCC,THERMAL ZONE 83,21.00,1.1,1.1,5.382E-002,18.581,0.300,0.700,AutoCalculate,MEDIUM OFFICE_ACTIVITY,No,3.8200E-008
 People Internal Gains, THERMAL ZONE 84 ASHRAE_90.1-2004 CLIMATEZONE 1-8 MEDIUMOFFICE WHOLEBUILDING PEOPLE,MEDIUM OFFICE_BLDG_OCC,THERMAL ZONE 84,21.00,1.1,1.1,5.382E-002,18.581,0.300,0.700,AutoCalculate,MEDIUM OFFICE_ACTIVITY,No,3.8200E-008
 People Internal Gains, THERMAL ZONE 85 ASHRAE_90.1-2004 CLIMATEZONE 1-8 MEDIUMOFFICE WHOLEBUILDING PEOPLE,MEDIUM OFFICE_BLDG_OCC,THERMAL ZONE 85,21.00,1.1,1.1,5.382E-002,18.581,0.300,0.700,AutoCalculate,MEDIUM OFFICE_ACTIVITY,No,3.8200E-008
 People Internal Gains, THERMAL ZONE 86 ASHRAE_90.1-2004 CLIMATEZONE 1-8 MEDIUMOFFICE WHOLEBUILDING PEOPLE,MEDIUM OFFICE_BLDG_OCC,THERMAL ZONE 86,21.00,1.1,1.1,5.382E-002,18.581,0.300,0.700,AutoCalculate,MEDIUM OFFICE_ACTIVITY,No,3.8200E-008
 People Internal Gains, THERMAL ZONE 87 ASHRAE_90.1-2004 CLIMATEZONE 1-8 MEDIUMOFFICE WHOLEBUILDING PEOPLE,MEDIUM OFFICE_BLDG_OCC,THERMAL ZONE 87,21.00,1.1,1.1,5.382E-002,18.581,0.300,0.700,AutoCalculate,MEDIUM OFFICE_ACTIVITY,No,3.8200E-008
 People Internal Gains, THERMAL ZONE 88 ASHRAE_90.1-2004 CLIMATEZONE 1-8 MEDIUMOFFICE WHOLEBUILDING PEOPLE,MEDIUM OFFICE_BLDG_OCC,THERMAL ZONE 88,21.00,1.1,1.1,5.382E-002,18.581,0.300,0.700,AutoCalculate,MEDIUM OFFICE_ACTIVITY,No,3.8200E-008
 People Internal Gains, THERMAL ZONE 89 ASHRAE_90.1-2004 CLIMATEZONE 1-8 MEDIUMOFFICE WHOLEBUILDING PEOPLE,MEDIUM OFFICE_BLDG_OCC,THERMAL ZONE 89,21.00,1.1,1.1,5.382E-002,18.581,0.300,0.700,AutoCalculate,MEDIUM OFFICE_ACTIVITY,No,3.8200E-008
 People Internal Gains, THERMAL ZONE 9 ASHRAE_90.1-2004 CLIMATEZONE 1-8 MEDIUMOFFICE WHOLEBUILDING PEOPLE,MEDIUM OFFICE_BLDG_OCC,THERMAL ZONE 9,21.00,1.1,1.1,5.382E-002,18.581,0.300,0.700,AutoCalculate,MEDIUM OFFICE_ACTIVITY,No,3.8200E-008
 People Internal Gains, THERMAL ZONE 90 ASHRAE_90.1-2004 CLIMATEZONE 1-8 MEDIUMOFFICE WHOLEBUILDING PEOPLE,MEDIUM OFFICE_BLDG_OCC,THERMAL ZONE 90,21.00,1.1,1.1,5.382E-002,18.581,0.300,0.700,AutoCalculate,MEDIUM OFFICE_ACTIVITY,No,3.8200E-008
 People Internal Gains, THERMAL ZONE 91 ASHRAE_90.1-2004 CLIMATEZONE 1-8 MEDIUMOFFICE WHOLEBUILDING PEOPLE,MEDIUM OFFICE_BLDG_OCC,THERMAL ZONE 91,21.00,1.1,1.1,5.382E-002,18.581,0.300,0.700,AutoCalculate,MEDIUM OFFICE_ACTIVITY,No,3.8200E-008
 People Internal Gains, THERMAL ZONE 92 ASHRAE_90.1-2004 CLIMATEZONE 1-8 MEDIUMOFFICE WHOLEBUILDING PEOPLE,MEDIUM OFFICE_BLDG_OCC,THERMAL ZONE 92,21.00,1.1,1.1,5.382E-002,18.581,0.300,0.700,AutoCalculate,MEDIUM OFFICE_ACTIVITY,No,3.8200E-008
 People Internal Gains, THERMAL ZONE 93 ASHRAE_90.1-2004 CLIMATEZONE 1-8 MEDIUMOFFICE WHOLEBUILDING PEOPLE,MEDIUM OFFICE_BLDG_OCC,THERMAL ZONE 93,16.00,0.9,0.9,5.382E-002,18.581,0.300,0.700,AutoCalculate,MEDIUM OFFICE_ACTIVITY,No,3.8200E-008
 People Internal Gains, THERMAL ZONE 94 ASHRAE_90.1-2004 CLIMATEZONE 1-8 MEDIUMOFFICE WHOLEBUILDING PEOPLE,MEDIUM OFFICE_BLDG_OCC,THERMAL ZONE 94,16.00,0.9,0.9,5.382E-002,18.581,0.300,0.700,AutoCalculate,MEDIUM OFFICE_ACTIVITY,No,3.8200E-008
 People Internal Gains, THERMAL ZONE 95 ASHRAE_90.1-2004 CLIMATEZONE 1-8 MEDIUMOFFICE WHOLEBUILDING PEOPLE,MEDIUM OFFICE_BLDG_OCC,THERMAL ZONE 95,21.00,1.1,1.1,5.382E-002,18.581,0.300,0.700,AutoCalculate,MEDIUM OFFICE_ACTIVITY,No,3.8200E-008
 People Internal Gains, THERMAL ZONE 96 ASHRAE_90.1-2004 CLIMATEZONE 1-8 MEDIUMOFFICE WHOLEBUILDING PEOPLE,MEDIUM OFFICE_BLDG_OCC,THERMAL ZONE 96,21.00,1.1,1.1,5.382E-002,18.581,0.300,0.700,AutoCalculate,MEDIUM OFFICE_ACTIVITY,No,3.8200E-008
 People Internal Gains, THERMAL ZONE 97 ASHRAE_90.1-2004 CLIMATEZONE 1-8 MEDIUMOFFICE WHOLEBUILDING PEOPLE,MEDIUM OFFICE_BLDG_OCC,THERMAL ZONE 97,21.00,1.1,1.1,5.382E-002,18.581,0.300,0.700,AutoCalculate,MEDIUM OFFICE_ACTIVITY,No,3.8200E-008
 People Internal Gains, THERMAL ZONE 98 ASHRAE_90.1-2004 CLIMATEZONE 1-8 MEDIUMOFFICE WHOLEBUILDING PEOPLE,MEDIUM OFFICE_BLDG_OCC,THERMAL ZONE 98,21.00,1.1,1.1,5.382E-002,18.581,0.300,0.700,AutoCalculate,MEDIUM OFFICE_ACTIVITY,No,3.8200E-008
 People Internal Gains, THERMAL ZONE 99 ASHRAE_90.1-2004 CLIMATEZONE 1-8 MEDIUMOFFICE WHOLEBUILDING PEOPLE,MEDIUM OFFICE_BLDG_OCC,THERMAL ZONE 99,16.00,0.9,0.9,5.382E-002,18.581,0.300,0.700,AutoCalculate,MEDIUM OFFICE_ACTIVITY,No,3.8200E-008
! <Lights Internal Gains - Nominal>,Name,Schedule Name,Zone Name,Zone Floor Area {m2},# Zone Occupants,Lighting Level {W},Lights/Floor Area {W/m2},Lights per person {W/person},Fraction Return Air,Fraction Radiant,Fraction Short Wave,Fraction Convected,Fraction Replaceable,EndUse Category
 Lights Internal Gains, THERMAL ZONE 1 ASHRAE_90.1-2004 CLIMATEZONE 1-8 MEDIUMOFFICE WHOLEBUILDING LIGHTS,MEDIUM OFFICE_BLDG_LIGHT,THERMAL ZONE 1,21.00,1.1,226.042,10.764,200.000,0.000,0.000,0.000,1.000,1.000,General
 Lights Internal Gains, THERMAL ZONE 10 ASHRAE_90.1-2004 CLIMATEZONE 1-8 MEDIUMOFFICE WHOLEBUILDING LIGHTS,MEDIUM OFFICE_BLDG_LIGHT,THERMAL ZONE 10,21.00,1.1,226.042,10.764,200.000,0.000,0.000,0.000,1.000,1.000,General
 Lights Internal Gains, THERMAL ZONE 100 ASHRAE_90.1-2004 CLIMATEZONE 1-8 MEDIUMOFFICE WHOLEBUILDING LIGHTS,MEDIUM OFFICE_BLDG_LIGHT,THERMAL ZONE 100,21.00,1.1,226.042,10.764,200.000,0.000,0.000,0.000,1.000,1.000,General
 Lights Internal Gains, THERMAL ZONE 11 ASHRAE_90.1-2004 CLIMATEZONE 1-8 MEDIUMOFFICE WHOLEBUILDING LIGHTS,MEDIUM OFFICE_BLDG_LIGHT,THERMAL ZONE 11,21.00,1.1,226.042,10.764,200.000,0.000,0.000,0.000,1.000,1.000,General
 Lights Internal Gains, THERMAL ZONE 12 ASHRAE_90.1-2004 CLIMATEZONE 1-8 MEDIUMOFFICE WHOLEBUILDING LIGHTS,MEDIUM OFFICE_BLDG_LIGHT,THERMAL ZONE 12,16.00,0.9,172.223,10.764,200.000,0.000,0.000,0.000,1.000,1.000,General
 Lights Internal Gains, THERMAL ZONE 13 ASHRAE_90.1-2004 CLIMATEZONE 1-8 MEDIUMOFFICE WHOLEBUILDING LIGHTS,MEDIUM OFFICE_BLDG_LIGHT,THERMAL ZONE 13,21.00,1.1,226.042,10.764,200.000,0.000,0.000,0.000,1.000,1.000,General
 Lights Internal Gains, THERMAL ZONE 14 ASHRAE_90.1-2004 CLIMATEZONE 1-8 MEDIUMOFFICE WHOLEBUILDING LIGHTS,MEDIUM OFFICE_BLDG_LIGHT,THERMAL ZONE 14,16.00,0.9,172.223,10.764,200.000,0.000,0.000,0.000,1.000,1.000,General
 Lights Internal Gains, THERMAL ZONE 15 ASHRAE_90.1-2004 CLIMATEZONE 1-8 MEDIUMOFFICE WHOLEBUILDING LIGHTS,MEDIUM OFFICE_BLDG_LIGHT,THERMAL ZONE 15,21.00,1.1,226.042,10.764,200.000,0.000,0.000,0.000,1.000,1.000,General
 Lights Internal Gains, THERMAL ZONE 16 ASHRAE_90.1-2004 CLIMATEZONE 1-8 MEDIUMOFFICE WHOLEBUILDING LIGHTS,MEDIUM OFFICE_BLDG_LIGHT,THERMAL ZONE 16,21.00,1.1,226.042,10.764,200.000,0.000,0.000,0.000,1.000,1.000,General
 Lights Internal Gains, THERMAL ZONE 17 ASHRAE_90.1-2004 CLIMATEZONE 1-8 MEDIUMOFFICE WHOLEBUILDING LIGHTS,MEDIUM OFFICE_BLDG_LIGHT,THERMAL ZONE 17,21.00,1.1,226.042,10.764,200.000,0.000,0.000,0.000,1.000,1.000,General
 Lights Internal Gains, THERMAL ZONE 18 ASHRAE_90.1-2004 CLIMATEZONE 1-8 MEDIUMOFFICE WHOLEBUILDING LIGHTS,MEDIUM OFFICE_BLDG_LIGHT,THERMAL ZONE 18,21.00,1.1,226.042,10.764,200.000,0.000,0.000,0.000,1.000,1.000,General
 Lights Internal Gains, THERMAL ZONE 19 ASHRAE_90.1-2004 CLIMATEZONE 1-8 MEDIUMOFFICE WHOLEBUILDING LIGHTS,MEDIUM OFFICE_BLDG_LIGHT,THERMAL ZONE 19,21.00,1.1,226.042,10.764,200.000,0.000,0.000,0.000,1.000,1.000,General
 Lights Internal Gains, THERMAL ZONE 2 ASHRAE_90.1-2004 CLIMATEZONE 1-8 MEDIUMOFFICE WHOLEBUILDING LIGHTS,MEDIUM OFFICE_BLDG_LIGHT,THERMAL ZONE 2,21.00,1.1,226.042,10.764,200.000,0.000,0.000,0.000,1.000,1.000,General
 Lights Internal Gains, THERMAL ZONE 20 ASHRAE_90.1-2004 CLIMATEZONE 1-8 MEDIUMOFFICE WHOLEBUILDING LIGHTS,MEDIUM OFFICE_BLDG_LIGHT,THERMAL ZONE 20,16.00,0.9,172.223,10.764,200.000,0.000,0.000,0.000,1.000,1.000,General
 Lights Internal Gains, THERMAL ZONE 21 ASHRAE_90.1-2004 CLIMATEZONE 1-8 MEDIUMOFFICE WHOLEBUILDING LIGHTS,MEDIUM OFFICE_BLDG_LIGHT,THERMAL ZONE 21,16.00,0.9,172.223,10.764,200.000,0.000,0.000,0.000,1.000,1.000,General
 Lights Internal Gains, THERMAL ZONE 22 ASHRAE_90.1-2004 CLIMATEZONE 1-8 MEDIUMOFFICE WHOLEBUILDING LIGHTS,MEDIUM OFFICE_BLDG_LIGHT,THERMAL ZONE 22,21.00,1.1,226.042,10.764,200.000,0.000,0.000,0.000,1.000,1.000,General
 Lights Internal Gains, THERMAL ZONE 23 ASHRAE_90.1-2004 CLIMATEZONE 1-8 MEDIUMOFFICE WHOLEBUILDING LIGHTS,MEDIUM OFFICE_BLDG_LIGHT,THERMAL ZONE 23,21.00,1.1,226.042,10.764,200.000,0.000,0.000,0.000,1.000,1.000,General
 Lights Internal Gains, THERMAL ZONE 24 ASHRAE_90.1-2004 CLIMATEZONE 1-8 MEDIUMOFFICE WHOLEBUILDING LIGHTS,MEDIUM OFFICE_BLDG_LIGHT,THERMAL ZONE 24,21.00,1.1,226.042,10.764,200.000,0.000,0.000,0.000,1.000,1.000,General
 Lights Internal Gains, THERMAL ZONE 25 ASHRAE_90.1-2004 CLIMATEZONE 1-8 MEDIUMOFFICE WHOLEBUILDING LIGHTS,MEDIUM OFFICE_BLDG_LIGHT,THERMAL ZONE 25,21.00,1.1,226.042,10.764,200.000,0.000,0.000,0.000,1.000,1.000,General
 Lights Internal Gains, THERMAL ZONE 26 ASHRAE_90.1-2004 CLIMATEZONE 1-8 MEDIUMOFFICE WHOLEBUILDING LIGHTS,MEDIUM OFFICE_BLDG_LIGHT,THERMAL ZONE 26,21.00,1.1,226.042,10.764,200.000,0.000,0.000,0.000,1.000,1.000,General
 Lights Internal Gains, THERMAL ZONE 27 ASHRAE_90.1-2004 CLIMATEZONE 1-8 MEDIUMOFFICE WHOLEBUILDING LIGHTS,MEDIUM OFFICE_BLDG_LIGHT,THERMAL ZONE 27,21.00,1.1,226.042,10.764,200.000,0.000,0.000,0.000,1.000,1.000,General
 Lights Internal Gains, THERMAL ZONE 28 ASHRAE_90.1-2004 CLIMATEZONE 1-8 MEDIUMOFFICE WHOLEBUILDING LIGHTS,MEDIUM OFFICE_BLDG_LIGHT,THERMAL ZONE 28,21.00,1.1,226.042,10.764,200.000,0.000,0.000,0.000,1.000,1.000,General
 Lights Internal Gains, THERMAL ZONE 29 ASHRAE_90.1-2004 CLIMATEZONE 1-8 MEDIUMOFFICE WHOLEBUILDING LIGHTS,MEDIUM OFFICE_BLDG_LIGHT,THERMAL ZONE 29,21.00,1.1,226.042,10.764,200.000,0.000,0.000,0.000,1.000,1.000,General
 Lights Internal Gains, THERMAL ZONE 3 ASHRAE_90.1-2004 CLIMATEZONE 1-8 MEDIUMOFFICE WHOLEBUILDING LIGHTS,MEDIUM OFFICE_BLDG_LIGHT,THERMAL ZONE 3,21.00,1.1,226.042,10.764,200.000,0.000,0.000,0.000,1.000,1.000,General
 Lights Internal Gains, THERMAL ZONE 30 ASHRAE_90.1-2004 CLIMATEZONE 1-8 MEDIUMOFFICE WHOLEBUILDING LIGHTS,MEDIUM OFFICE_BLDG_LIGHT,THERMAL ZONE 30,16.00,0.9,172.223,10.764,200.000,0.000,0.000,0.000,1.000,1.000,General
 Lights Internal Gains, THERMAL ZONE 31 ASHRAE_90.1-2004 CLIMATEZONE 1-8 MEDIUMOFFICE WHOLEBUILDING LIGHTS,MEDIUM OFFICE_BLDG_LIGHT,THERMAL ZONE 31,21.00,1.1,226.042,10.764,200.000,0.000,0.000,0.000,1.000,1.000,General
 Lights Internal Gains, THERMAL ZONE 32 ASHRAE_90.1-2004 CLIMATEZONE 1-8 MEDIUMOFFICE WHOLEBUILDING LIGHTS,MEDIUM OFFICE_BLDG_LIGHT,THERMAL ZONE 32,16.00,0.9,172.223,10.764,200.000,0.000,0.000,0.000,1.000,1.000,General
 Lights Internal Gains, THERMAL ZONE 33 ASHRAE_90.1-2004 CLIMATEZONE 1-8 MEDIUMOFFICE WHOLEBUILDING LIGHTS,MEDIUM OFFICE_BLDG_LIGHT,THERMAL ZONE 33,21.00,1.1,226.042,10.764,200.000,0.000,0.000,0.000,1.000,1.000,General
 Lights Internal Gains, THERMAL ZONE 34 ASHRAE_90.1-2004 CLIMATEZONE 1-8 MEDIUMOFFICE WHOLEBUILDING LIGHTS,MEDIUM OFFICE_BLDG_LIGHT,THERMAL ZONE 34,16.00,0.9,172.223,10.764,200.000,0.000,0.000,0.000,1.000,1.000,General
 Lights Internal Gains, THERMAL ZONE 35 ASHRAE_90.1-2004 CLIMATEZONE 1-8 MEDIUMOFFICE WHOLEBUILDING LIGHTS,MEDIUM OFFICE_BLDG_LIGHT,THERMAL ZONE 35,21.00,1.1,226.042,10.764,200.000,0.000,0.000,0.000,1.000,1.000,General
 Lights Internal Gains, THERMAL ZONE 36 ASHRAE_90.1-2004 CLIMATEZONE 1-8 MEDIUMOFFICE WHOLEBUILDING LIGHTS,MEDIUM OFFICE_BLDG_LIGHT,THERMAL ZONE 36,21.00,1.1,226.042,10.764,200.000,0.000,0.000,0.000,1.000,1.000,General
 Lights Internal Gains, THERMAL ZONE 37 ASHRAE_90.1-2004 CLIMATEZONE 1-8 MEDIUMOFFICE WHOLEBUILDING LIGHTS,MEDIUM OFFICE_BLDG_LIGHT,THERMAL ZONE 37,21.00,1.1,226.042,10.764,200.000,0.000,0.000,0.000,1.000,1.000,General
 Lights Internal Gains, THERMAL ZONE 38 ASHRAE_90.1-2004 CLIMATEZONE 1-8 MEDIUMOFFICE WHOLEBUILDING LIGHTS,MEDIUM OFFICE_BLDG_LIGHT,THERMAL ZONE 38,16.00,0.9,172.223,10.764,200.000,0.000,0.000,0.000,1.000,1.000,General
 Lights Internal Gains, THERMAL ZONE 39 ASHRAE_90.1-2004 CLIMATEZONE 1-8 MEDIUMOFFICE WHOLEBUILDING LIGHTS,MEDIUM OFFICE_BLDG_LIGHT,THERMAL ZONE 39,16.00,0.9,172.223,10.764,200.000,0.000,0.000,0.000,1.000,1.000,General
 Lights Internal Gains, THERMAL ZONE 4 ASHRAE_90.1-2004 CLIMATEZONE 1-8 MEDIUMOFFICE WHOLEBUILDING LIGHTS,MEDIUM OFFICE_BLDG_LIGHT,THERMAL ZONE 4,21.00,1.1,226.042,10.764,200.000,0.000,0.000,0.000,1.000,1.000,General
 Lights Internal Gains, THERMAL ZONE 40 ASHRAE_90.1-2004 CLIMATEZONE 1-8 MEDIUMOFFICE WHOLEBUILDING LIGHTS,MEDIUM OFFICE_BLDG_LIGHT,THERMAL ZONE 40,21.00,1.1,226.042,10.764,200.000,0.000,0.000,0.000,1.000,1.000,General
 Lights Internal Gains, THERMAL ZONE 41 ASHRAE_90.1-2004 CLIMATEZONE 1-8 MEDIUMOFFICE WHOLEBUILDING LIGHTS,MEDIUM OFFICE_BLDG_LIGHT,THERMAL ZONE 41,21.00,1.1,226.042,10.764,200.000,0.000,0.000,0.000,1.000,1.000,General
 Lights Internal Gains, THERMAL ZONE 42 ASHRAE_90.1-2004 CLIMATEZONE 1-8 MEDIUMOFFICE WHOLEBUILDING LIGHTS,MEDIUM OFFICE_BLDG_LIGHT,THERMAL ZONE 42,16.00,0.9,172.223,10.764,200.000,0.000,0.000,0.000,1.000,1.000,General
 Lights Internal Gains, THERMAL ZONE 43 ASHRAE_90.1-2004 CLIMATEZONE 1-8 MEDIUMOFFICE WHOLEBUILDING LIGHTS,MEDIUM OFFICE_BLDG_LIGHT,THERMAL ZONE 43,21.00,1.1,226.042,10.764,200.000,0.000,0.000,0.000,1.000,1.000,General
 Lights Internal Gains, THERMAL ZONE 44 ASHRAE_90.1-2004 CLIMATEZONE 1-8 MEDIUMOFFICE WHOLEBUILDING LIGHTS,MEDIUM OFFICE_BLDG_LIGHT,THERMAL ZONE 44,21.00,1.1,226.042,10.764,200.000,0.000,0.000,0.000,1.000,1.000,General
 Lights Internal Gains, THERMAL ZONE 45 ASHRAE_90.1-2004 CLIMATEZONE 1-8 MEDIUMOFFICE WHOLEBUILDING LIGHTS,MEDIUM OFFICE_BLDG_LIGHT,THERMAL ZONE 45,16.00,0.9,172.223,10.764,200.000,0.000,0.000,0.000,1.000,1.000,General
 Lights Internal Gains, THERMAL ZONE 46 ASHRAE_90.1-2004 CLIMATEZONE 1-8 MEDIUMOFFICE WHOLEBUILDING LIGHTS,MEDIUM OFFICE_BLDG_LIGHT,THERMAL ZONE 46,21.00,1.1,226.042,10.764,200.000,0.000,0.000,0.000,1.000,1.000,General
 Lights Internal Gains, THERMAL ZONE 47 ASHRAE_90.1-2004 CLIMATEZONE 1-8 MEDIUMOFFICE WHOLEBUILDING LIGHTS,MEDIUM OFFICE_BLDG_LIGHT,THERMAL ZONE 47,21.00,1.1,226.042,10.764,200.000,0.000,0.000,0.000,1.000,1.000,General
 Lights Internal Gains, THERMAL ZONE 48 ASHRAE_90.1-2004 CLIMATEZONE 1-8 MEDIUMOFFICE WHOLEBUILDING LIGHTS,MEDIUM OFFICE_BLDG_LIGHT,THERMAL ZONE 48,21.00,1.1,226.042,10.764,200.000,0.000,0.000,0.000,1.000,1.000,General
 Lights Internal Gains, THERMAL ZONE 49 ASHRAE_90.1-2004 CLIMATEZONE 1-8 MEDIUMOFFICE WHOLEBUILDING LIGHTS,MEDIUM OFFICE_BLDG_LIGHT,THERMAL ZONE 49,21.00,1.1,226.042,10.764,200.000,0.000,0.000,0.000,1.000,1.000,General
 Lights Internal Gains, THERMAL ZONE 5 ASHRAE_90.1-2004 CLIMATEZONE 1-8 MEDIUMOFFICE WHOLEBUILDING LIGHTS,MEDIUM OFFICE_BLDG_LIGHT,THERMAL ZONE 5,21.00,1.1,226.042,10.764,200.000,0.000,0.000,0.000,1.000,1.000,General
 Lights Internal Gains, THERMAL ZONE 50 ASHRAE_90.1-2004 CLIMATEZONE 1-8 MEDIUMOFFICE WHOLEBUILDING LIGHTS,MEDIUM OFFICE_BLDG_LIGHT,THERMAL ZONE 50,21.00,1.1,226.042,10.764,200.000,0.000,0.000,0.000,1.000,1.000,General
 Lights Internal Gains, THERMAL ZONE 51 ASHRAE_90.1-2004 CLIMATEZONE 1-8 MEDIUMOFFICE WHOLEBUILDING LIGHTS,MEDIUM OFFICE_BLDG_LIGHT,THERMAL ZONE 51,21.00,1.1,226.042,10.764,200.000,0.000,0.000,0.000,1.000,1.000,General
 Lights Internal Gains, THERMAL ZONE 52 ASHRAE_90.1-2004 CLIMATEZONE 1-8 MEDIUMOFFICE WHOLEBUILDING LIGHTS,MEDIUM OFFICE_BLDG_LIGHT,THERMAL ZONE 52,21.00,1.1,226.042,10.764,200.000,0.000,0.000,0.000,1.000,1.000,General
 Lights Internal Gains, THERMAL ZONE 53 ASHRAE_90.1-2004 CLIMATEZONE 1-8 MEDIUMOFFICE WHOLEBUILDING LIGHTS,MEDIUM OFFICE_BLDG_LIGHT,THERMAL ZONE 53,16.00,0.9,172.223,10.764,200.000,0.000,0.000,0.000,1.000,1.000,General
 Lights Internal Gains, THERMAL ZONE 54 ASHRAE_90.1-2004 CLIMATEZONE 1-8 MEDIUMOFFICE WHOLEBUILDING LIGHTS,MEDIUM OFFICE_BLDG_LIGHT,THERMAL ZONE 54,21.00,1.1,226.042,10.764,200.000,0.000,0.000,0.000,1.000,1.000,General
 Lights Internal Gains, THERMAL ZONE 55 ASHRAE_90.1-2004 CLIMATEZONE 1-8 MEDIUMOFFICE WHOLEBUILDING LIGHTS,MEDIUM OFFICE_BLDG_LIGHT,THERMAL ZONE 55,21.00,1.1,226.042,10.764,200.000,0.000,0.000,0.000,1.000,1.000,General
 Lights Internal Gains, THERMAL ZONE 56 ASHRAE_90.1-2004 CLIMATEZONE 1-8 MEDIUMOFFICE WHOLEBUILDING LIGHTS,MEDIUM OFFICE_BLDG_LIGHT,THERMAL ZONE 56,21.00,1.1,226.042,10.764,200.000,0.000,0.000,0.000,1.000,1.000,General
 Lights Internal Gains, THERMAL ZONE 57 ASHRAE_90.1-2004 CLIMATEZONE 1-8 MEDIUMOFFICE WHOLEBUILDING LIGHTS,MEDIUM OFFICE_BLDG_LIGHT,THERMAL ZONE 57,21.00,1.1,226.042,10.764,200.000,0.000,0.000,0.000,1.000,1.000,General
 Lights Internal Gains, THERMAL ZONE 58 ASHRAE_90.1-2004 CLIMATEZONE 1-8 MEDIUMOFFICE WHOLEBUILDING LIGHTS,MEDIUM OFFICE_BLDG_LIGHT,THERMAL ZONE 58,21.00,1.1,226.042,10.764,200.000,0.000,0.000,0.000,1.000,1.000,General
 Lights Internal Gains, THERMAL ZONE 59 ASHRAE_90.1-2004 CLIMATEZONE 1-8 MEDIUMOFFICE WHOLEBUILDING LIGHTS,MEDIUM OFFICE_BLDG_LIGHT,THERMAL ZONE 59,21.00,1.1,226.042,10.764,200.000,0.000,0.000,0.000,1.000,1.000,General
 Lights Internal Gains, THERMAL ZONE 6 ASHRAE_90.1-2004 CLIMATEZONE 1-8 MEDIUMOFFICE WHOLEBUILDING LIGHTS,MEDIUM OFFICE_BLDG_LIGHT,THERMAL ZONE 6,21.00,1.1,226.042,10.764,200.000,0.000,0.000,0.000,1.000,1.000,General
 Lights Internal Gains, THERMAL ZONE 60 ASHRAE_90.1-2004 CLIMATEZONE 1-8 MEDIUMOFFICE WHOLEBUILDING LIGHTS,MEDIUM OFFICE_BLDG_LIGHT,THERMAL ZONE 60,21.00,1.1,226.042,10.764,200.000,0.000,0.000,0.000,1.000,1.000,General
 Lights Internal Gains, THERMAL ZONE 61 ASHRAE_90.1-2004 CLIMATEZONE 1-8 MEDIUMOFFICE WHOLEBUILDING LIGHTS,MEDIUM OFFICE_BLDG_LIGHT,THERMAL ZONE 61,21.00,1.1,226.042,10.764,200.000,0.000,0.000,0.000,1.000,1.000,General
 Lights Internal Gains, THERMAL ZONE 62 ASHRAE_90.1-2004 CLIMATEZONE 1-8 MEDIUMOFFICE WHOLEBUILDING LIGHTS,MEDIUM OFFICE_BLDG_LIGHT,THERMAL ZONE 62,21.00,1.1,226.042,10.764,200.000,0.000,0.000,0.000,1.000,1.000,General
 Lights Internal Gains, THERMAL ZONE 63 ASHRAE_90.1-2004 CLIMATEZONE 1-8 MEDIUMOFFICE WHOLEBUILDING LIGHTS,MEDIUM OFFICE_BLDG_LIGHT,THERMAL ZONE 63,21.00,1.1,226.042,10.764,200.000,0.000,0.000,0.000,1.000,1.000,General
 Lights Internal Gains, THERMAL ZONE 64 ASHRAE_90.1-2004 CLIMATEZONE 1-8 MEDIUMOFFICE WHOLEBUILDING LIGHTS,MEDIUM OFFICE_BLDG_LIGHT,THERMAL ZONE 64,21.00,1.1,226.042,10.764,200.000,0.000,0.000,0.000,1.000,1.000,General
 Lights Internal Gains, THERMAL ZONE 65 ASHRAE_90.1-2004 CLIMATEZONE 1-8 MEDIUMOFFICE WHOLEBUILDING LIGHTS,MEDIUM OFFICE_BLDG_LIGHT,THERMAL ZONE 65,21.00,1.1,226.042,10.764,200.000,0.000,0.000,0.000,1.000,1.000,General
 Lights Internal Gains, THERMAL ZONE 66 ASHRAE_90.1-2004 CLIMATEZONE 1-8 MEDIUMOFFICE WHOLEBUILDING LIGHTS,MEDIUM OFFICE_BLDG_LIGHT,THERMAL ZONE 66,21.00,1.1,226.042,10.764,200.000,0.000,0.000,0.000,1.000,1.000,General
 Lights Internal Gains, THERMAL ZONE 67 ASHRAE_90.1-2004 CLIMATEZONE 1-8 MEDIUMOFFICE WHOLEBUILDING LIGHTS,MEDIUM OFFICE_BLDG_LIGHT,THERMAL ZONE 67,21.00,1.1,226.042,10.764,200.000,0.000,0.000,0.000,1.000,1.000,General
 Lights Internal Gains, THERMAL ZONE 68 ASHRAE_90.1-2004 CLIMATEZONE 1-8 MEDIUMOFFICE WHOLEBUILDING LIGHTS,MEDIUM OFFICE_BLDG_LIGHT,THERMAL ZONE 68,21.00,1.1,226.042,10.764,200.000,0.000,0.000,0.000,1.000,1.000,General
 Lights Internal Gains, THERMAL ZONE 69 ASHRAE_90.1-2004 CLIMATEZONE 1-8 MEDIUMOFFICE WHOLEBUILDING LIGHTS,MEDIUM OFFICE_BLDG_LIGHT,THERMAL ZONE 69,21.00,1.1,226.042,10.764,200.000,0.000,0.000,0.000,1.000,1.000,General
 Lights Internal Gains, THERMAL ZONE 7 ASHRAE_90.1-2004 CLIMATEZONE 1-8 MEDIUMOFFICE WHOLEBUILDING LIGHTS,MEDIUM OFFICE_BLDG_LIGHT,THERMAL ZONE 7,16.00,0.9,172.223,10.764,200.000,0.000,0.000,0.000,1.000,1.000,General
 Lights Internal Gains, THERMAL ZONE 70 ASHRAE_90.1-2004 CLIMATEZONE 1-8 MEDIUMOFFICE WHOLEBUILDING LIGHTS,MEDIUM OFFICE_BLDG_LIGHT,THERMAL ZONE 70,21.00,1.1,226.042,10.764,200.000,0.000,0.000,0.000,1.000,1.000,General
 Lights Internal Gains, THERMAL ZONE 71 ASHRAE_90.1-2004 CLIMATEZONE 1-8 MEDIUMOFFICE WHOLEBUILDING LIGHTS,MEDIUM OFFICE_BLDG_LIGHT,THERMAL ZONE 71,21.00,1.1,226.042,10.764,200.000,0.000,0.000,0.000,1.000,1.000,General
 Lights Internal Gains, THERMAL ZONE 72 ASHRAE_90.1-2004 CLIMATEZONE 1-8 MEDIUMOFFICE WHOLEBUILDING LIGHTS,MEDIUM OFFICE_BLDG_LIGHT,THERMAL ZONE 72,21.00,1.1,226.042,10.764,200.000,0.000,0.000,0.000,1.000,1.000,General
 Lights Internal Gains, THERMAL ZONE 73 ASHRAE_90.1-2004 CLIMATEZONE 1-8 MEDIUMOFFICE WHOLEBUILDING LIGHTS,MEDIUM OFFICE_BLDG_LIGHT,THERMAL ZONE 73,16.00,0.9,172.223,10.764,200.000,0.000,0.000,0.000,1.000,1.000,General
 Lights Internal Gains, THERMAL ZONE 74 ASHRAE_90.1-2004 CLIMATEZONE 1-8 MEDIUMOFFICE WHOLEBUILDING LIGHTS,MEDIUM OFFICE_BLDG_LIGHT,THERMAL ZONE 74,16.00,0.9,172.223,10.764,200.000,0.000,0.000,0.000,1.000,1.000,General
 Lights Internal Gains, THERMAL ZONE 75 ASHRAE_90.1-2004 CLIMATEZONE 1-8 MEDIUMOFFICE WHOLEBUILDING LIGHTS,MEDIUM OFFICE_BLDG_LIGHT,THERMAL ZONE 75,16.00,0.9,172.223,10.764,200.000,0.000,0.000,0.000,1.000,1.000,General
 Lights Internal Gains, THERMAL ZONE 76 ASHRAE_90.1-2004 CLIMATEZONE 1-8 MEDIUMOFFICE WHOLEBUILDING LIGHTS,MEDIUM OFFICE_BLDG_LIGHT,THERMAL ZONE 76,21.00,1.1,226.042,10.764,200.000,0.000,0.000,0.000,1.000,1.000,General
 Lights Internal Gains, THERMAL ZONE 77 ASHRAE_90.1-2004 CLIMATEZONE 1-8 MEDIUMOFFICE WHOLEBUILDING LIGHTS,MEDIUM OFFICE_BLDG_LIGHT,THERMAL ZONE 77,16.00,0.9,172.223,10.764,200.000,0.000,0.000,0.000,1.000,1.000,General
 Lights Internal Gains, THERMAL ZONE 78 ASHRAE_90.1-2004 CLIMATEZONE 1-8 MEDIUMOFFICE WHOLEBUILDING LIGHTS,MEDIUM OFFICE_BLDG_LIGHT,THERMAL ZONE 78,21.00,1.1,226.042,10.764,200.000,0.000,0.000,0.000,1.000,1.000,General
 Lights Internal Gains, THERMAL ZONE 79 ASHRAE_90.1-2004 CLIMATEZONE 1-8 MEDIUMOFFICE WHOLEBUILDING LIGHTS,MEDIUM OFFICE_BLDG_LIGHT,THERMAL ZONE 79,21.00,1.1,226.042,10.764,200.000,0.000,0.000,0.000,1.000,1.000,General
 Lights Internal Gains, THERMAL ZONE 8 ASHRAE_90.1-2004 CLIMATEZONE 1-8 MEDIUMOFFICE WHOLEBUILDING LIGHTS,MEDIUM OFFICE_BLDG_LIGHT,THERMAL ZONE 8,21.00,1.1,226.042,10.764,200.000,0.000,0.000,0.000,1.000,1.000,General
 Lights Internal Gains, THERMAL ZONE 80 ASHRAE_90.1-2004 CLIMATEZONE 1-8 MEDIUMOFFICE WHOLEBUILDING LIGHTS,MEDIUM OFFICE_BLDG_LIGHT,THERMAL ZONE 80,21.00,1.1,226.042,10.764,200.000,0.000,0.000,0.000,1.000,1.000,General
 Lights Internal Gains, THERMAL ZONE 81 ASHRAE_90.1-2004 CLIMATEZONE 1-8 MEDIUMOFFICE WHOLEBUILDING LIGHTS,MEDIUM OFFICE_BLDG_LIGHT,THERMAL ZONE 81,21.00,1.1,226.042,10.764,200.000,0.000,0.000,0.000,1.000,1.000,General
 Lights Internal Gains, THERMAL ZONE 82 ASHRAE_90.1-2004 CLIMATEZONE 1-8 MEDIUMOFFICE WHOLEBUILDING LIGHTS,MEDIUM OFFICE_BLDG_LIGHT,THERMAL ZONE 82,21.00,1.1,226.042,10.764,200.000,0.000,0.000,0.000,1.000,1.000,General
 Lights Internal Gains, THERMAL ZONE 83 ASHRAE_90.1-2004 CLIMATEZONE 1-8 MEDIUMOFFICE WHOLEBUILDING LIGHTS,MEDIUM OFFICE_BLDG_LIGHT,THERMAL ZONE 83,21.00,1.1,226.042,10.764,200.000,0.000,0.000,0.000,1.000,1.000,General
 Lights Internal Gains, THERMAL ZONE 84 ASHRAE_90.1-2004 CLIMATEZONE 1-8 MEDIUMOFFICE WHOLEBUILDING LIGHTS,MEDIUM OFFICE_BLDG_LIGHT,THERMAL ZONE 84,21.00,1.1,226.042,10.764,200.000,0.000,0.000,0.000,1.000,1.000,General
 Lights Internal Gains, THERMAL ZONE 85 ASHRAE_90.1-2004 CLIMATEZONE 1-8 MEDIUMOFFICE WHOLEBUILDING LIGHTS,MEDIUM OFFICE_BLDG_LIGHT,THERMAL ZONE 85,21.00,1.1,226.042,10.764,200.000,0.000,0.000,0.000,1.000,1.000,General
 Lights Internal Gains, THERMAL ZONE 86 ASHRAE_90.1-2004 CLIMATEZONE 1-8 MEDIUMOFFICE WHOLEBUILDING LIGHTS,MEDIUM OFFICE_BLDG_LIGHT,THERMAL ZONE 86,21.00,1.1,226.042,10.764,200.000,0.000,0.000,0.000,1.000,1.000,General
 Lights Internal Gains, THERMAL ZONE 87 ASHRAE_90.1-2004 CLIMATEZONE 1-8 MEDIUMOFFICE WHOLEBUILDING LIGHTS,MEDIUM OFFICE_BLDG_LIGHT,THERMAL ZONE 87,21.00,1.1,226.042,10.764,200.000,0.000,0.000,0.000,1.000,1.000,General
 Lights Internal Gains, THERMAL ZONE 88 ASHRAE_90.1-2004 CLIMATEZONE 1-8 MEDIUMOFFICE WHOLEBUILDING LIGHTS,MEDIUM OFFICE_BLDG_LIGHT,THERMAL ZONE 88,21.00,1.1,226.042,10.764,200.000,0.000,0.000,0.000,1.000,1.000,General
 Lights Internal Gains, THERMAL ZONE 89 ASHRAE_90.1-2004 CLIMATEZONE 1-8 MEDIUMOFFICE WHOLEBUILDING LIGHTS,MEDIUM OFFICE_BLDG_LIGHT,THERMAL ZONE 89,21.00,1.1,226.042,10.764,200.000,0.000,0.000,0.000,1.000,1.000,General
 Lights Internal Gains, THERMAL ZONE 9 ASHRAE_90.1-2004 CLIMATEZONE 1-8 MEDIUMOFFICE WHOLEBUILDING LIGHTS,MEDIUM OFFICE_BLDG_LIGHT,THERMAL ZONE 9,21.00,1.1,226.042,10.764,200.000,0.000,0.000,0.000,1.000,1.000,General
 Lights Internal Gains, THERMAL ZONE 90 ASHRAE_90.1-2004 CLIMATEZONE 1-8 MEDIUMOFFICE WHOLEBUILDING LIGHTS,MEDIUM OFFICE_BLDG_LIGHT,THERMAL ZONE 90,21.00,1.1,226.042,10.764,200.000,0.000,0.000,0.000,1.000,1.000,General
 Lights Internal Gains, THERMAL ZONE 91 ASHRAE_90.1-2004 CLIMATEZONE 1-8 MEDIUMOFFICE WHOLEBUILDING LIGHTS,MEDIUM OFFICE_BLDG_LIGHT,THERMAL ZONE 91,21.00,1.1,226.042,10.764,200.000,0.000,0.000,0.000,1.000,1.000,General
 Lights Internal Gains, THERMAL ZONE 92 ASHRAE_90.1-2004 CLIMATEZONE 1-8 MEDIUMOFFICE WHOLEBUILDING LIGHTS,MEDIUM OFFICE_BLDG_LIGHT,THERMAL ZONE 92,21.00,1.1,226.042,10.764,200.000,0.000,0.000,0.000,1.000,1.000,General
 Lights Internal Gains, THERMAL ZONE 93 ASHRAE_90.1-2004 CLIMATEZONE 1-8 MEDIUMOFFICE WHOLEBUILDING LIGHTS,MEDIUM OFFICE_BLDG_LIGHT,THERMAL ZONE 93,16.00,0.9,172.223,10.764,200.000,0.000,0.000,0.000,1.000,1.000,General
 Lights Internal Gains, THERMAL ZONE 94 ASHRAE_90.1-2004 CLIMATEZONE 1-8 MEDIUMOFFICE WHOLEBUILDING LIGHTS,MEDIUM OFFICE_BLDG_LIGHT,THERMAL ZONE 94,16.00,0.9,172.223,10.764,200.000,0.000,0.000,0.000,1.000,1.000,General
 Lights Internal Gains, THERMAL ZONE 95 ASHRAE_90.1-2004 CLIMATEZONE 1-8 MEDIUMOFFICE WHOLEBUILDING LIGHTS,MEDIUM OFFICE_BLDG_LIGHT,THERMAL ZONE 95,21.00,1.1,226.042,10.764,200.000,0.000,0.000,0.000,1.000,1.000,General
[...]
 Warmup Convergence Information,THERMAL ZONE 13,SizingPeriod: PHILADELPHIA INTERNATIONAL AP ANN HUM_N 99.6% CONDNS DP=>MCDB,7.9281454039E-003,3.2547736226E-002,Pass,Pass,7.4519761124E-003,3.9006800542E-002,Pass,Pass
 Warmup Convergence Information,THERMAL ZONE 42,SizingPeriod: PHILADELPHIA INTERNATIONAL AP ANN HUM_N 99.6% CONDNS DP=>MCDB,1.3259329637E-003,1.9013975841E-003,Pass,Pass,4.1740183981E-003,3.7409347161E-003,Pass,Pass
 Warmup Convergence Information,THERMAL ZONE 47,SizingPeriod: PHILADELPHIA INTERNATIONAL AP ANN HUM_N 99.6% CONDNS DP=>MCDB,2.5811146734E-002,9.6561019560E-002,Pass,Pass,4.6323970247E-003,1.8590655577E-002,Pass,Pass
 Warmup Convergence Information,THERMAL ZONE 64,SizingPeriod: PHILADELPHIA INTERNATIONAL AP ANN HUM_N 99.6% CONDNS DP=>MCDB,4.6105753937E-003,1.6117277943E-002,Pass,Pass,7.5533720424E-003,4.3730497006E-002,Pass,Pass
 Warmup Convergence Information,THERMAL ZONE 54,SizingPeriod: PHILADELPHIA INTERNATIONAL AP ANN HUM_N 99.6% CONDNS DP=>MCDB,1.4368858123E-002,6.1555143676E-002,Pass,Pass,6.9980388954E-003,3.0641306712E-002,Pass,Pass
 Warmup Convergence Information,THERMAL ZONE 74,SizingPeriod: PHILADELPHIA INTERNATIONAL AP ANN HUM_N 99.6% CONDNS DP=>MCDB,1.2948653782E-003,1.9583269241E-003,Pass,Pass,4.0794352357E-003,3.6387849623E-003,Pass,Pass
 Warmup Convergence Information,THERMAL ZONE 6,SizingPeriod: PHILADELPHIA INTERNATIONAL AP ANN HUM_N 99.6% CONDNS DP=>MCDB,9.9317747168E-003,4.2710801015E-002,Pass,Pass,7.0519425257E-003,3.6172390110E-002,Pass,Pass
 Warmup Convergence Information,THERMAL ZONE 23,SizingPeriod: PHILADELPHIA INTERNATIONAL AP ANN HUM_N 99.6% CONDNS DP=>MCDB,1.6159787820E-002,6.9027300845E-002,Pass,Pass,6.9150109471E-003,2.8888365540E-002,Pass,Pass
 Warmup Convergence Information,THERMAL ZONE 63,SizingPeriod: PHILADELPHIA INTERNATIONAL AP ANN HUM_N 99.6% CONDNS DP=>MCDB,1.5455586862E-002,6.5267857149E-002,Pass,Pass,7.0409421536E-003,2.9870787316E-002,Pass,Pass
 Warmup Convergence Information,THERMAL ZONE 29,SizingPeriod: PHILADELPHIA INTERNATIONAL AP ANN HUM_N 99.6% CONDNS DP=>MCDB,4.5457150660E-003,1.5027455726E-002,Pass,Pass,7.6912902806E-003,4.3728661855E-002,Pass,Pass
 Warmup Convergence Information,THERMAL ZONE 96,SizingPeriod: PHILADELPHIA INTERNATIONAL AP ANN HUM_N 99.6% CONDNS DP=>MCDB,1.6927047878E-002,7.2040005714E-002,Pass,Pass,6.9945302309E-003,2.8127852874E-002,Pass,Pass
 Warmup Convergence Information,THERMAL ZONE 26,SizingPeriod: PHILADELPHIA INTERNATIONAL AP ANN HUM_N 99.6% CONDNS DP=>MCDB,4.5929370954E-003,9.6281520025E-003,Pass,Pass,8.2009076605E-003,4.4663108094E-002,Pass,Pass
 Warmup Convergence Information,THERMAL ZONE 17,SizingPeriod: PHILADELPHIA INTERNATIONAL AP ANN HUM_N 99.6% CONDNS DP=>MCDB,1.3949286991E-002,5.9547899279E-002,Pass,Pass,7.1088854700E-003,3.1545599691E-002,Pass,Pass
 Warmup Convergence Information,THERMAL ZONE 72,SizingPeriod: PHILADELPHIA INTERNATIONAL AP ANN HUM_N 99.6% CONDNS DP=>MCDB,1.7901683172E-002,7.5719633236E-002,Pass,Pass,6.7770447130E-003,2.7523925633E-002,Pass,Pass
 Warmup Convergence Information,THERMAL ZONE 31,SizingPeriod: PHILADELPHIA INTERNATIONAL AP ANN HUM_N 99.6% CONDNS DP=>MCDB,5.0305853012E-003,8.9293706585E-003,Pass,Pass,8.4854155587E-003,4.4724214954E-002,Pass,Pass
 Warmup Convergence Information,THERMAL ZONE 22,SizingPeriod: PHILADELPHIA INTERNATIONAL AP ANN HUM_N 99.6% CONDNS DP=>MCDB,1.8877143097E-002,7.8319535672E-002,Pass,Pass,6.6603277723E-003,2.6455999388E-002,Pass,Pass
 Warmup Convergence Information,THERMAL ZONE 87,SizingPeriod: PHILADELPHIA INTERNATIONAL AP ANN HUM_N 99.6% CONDNS DP=>MCDB,4.6588618413E-003,9.9050499306E-003,Pass,Pass,7.9813427995E-003,4.4056356448E-002,Pass,Pass
 Warmup Convergence Information,THERMAL ZONE 2,SizingPeriod: PHILADELPHIA INTERNATIONAL AP ANN HUM_N 99.6% CONDNS DP=>MCDB,2.8517519061E-002,9.5887151567E-002,Pass,Pass,4.4528049017E-003,1.6486391491E-002,Pass,Pass
Environment,RUN PERIOD 1,WeatherFileRunPeriod,01/01,12/31,Thursday,365,Use RunPeriod Specified Day,Yes,Yes,No ,Yes,Yes
Environment:Daylight Saving,Yes,InputFile,03/08,11/01
Environment:WarmupDays,  6
 Warmup Convergence Information,THERMAL ZONE 95,RunPeriod: RUN PERIOD 1,2.0268847733E-003,2.0699730138E-003,Pass,Pass,0.5837843296,3.9127051349,Pass,Pass
 Warmup Convergence Information,THERMAL ZONE 24,RunPeriod: RUN PERIOD 1,2.1211165931E-003,1.8572480454E-003,Pass,Pass,0.1654806312,0.3841277292,Pass,Pass
 Warmup Convergence Information,THERMAL ZONE 99,RunPeriod: RUN PERIOD 1,5.0302549364E-002,7.6615782372E-002,Pass,Pass,0.3329818945,1.0207969462,Pass,Pass
 Warmup Convergence Information,THERMAL ZONE 50,RunPeriod: RUN PERIOD 1,5.0120625305E-003,1.3352451250E-002,Pass,Pass,0.4934126542,2.9577985587,Pass,Pass
 Warmup Convergence Information,THERMAL ZONE 4,RunPeriod: RUN PERIOD 1,1.5838752868E-003,1.5320435124E-003,Pass,Pass,0.1217749115,0.2761976713,Pass,Pass
 Warmup Convergence Information,THERMAL ZONE 94,RunPeriod: RUN PERIOD 1,5.0986276347E-002,7.7433407573E-002,Pass,Pass,0.4653886054,3.1933019522,Pass,Pass
 Warmup Convergence Information,THERMAL ZONE 65,RunPeriod: RUN PERIOD 1,6.9775787275E-002,0.1166699642,Pass,Pass,0.3169971706,1.0489513689,Pass,Pass
 Warmup Convergence Information,THERMAL ZONE 32,RunPeriod: RUN PERIOD 1,5.0502376668E-002,7.7121278538E-002,Pass,Pass,5.5324177629,39.6425551015,Pass,Pass
 Warmup Convergence Information,THERMAL ZONE 20,RunPeriod: RUN PERIOD 1,5.1129577498E-002,7.7574650739E-002,Pass,Pass,0.1658977887,0.4260756226,Pass,Pass
 Warmup Convergence Information,THERMAL ZONE 51,RunPeriod: RUN PERIOD 1,6.8662110407E-002,0.1151408690,Pass,Pass,2.6194660652,22.6638944174,Pass,Pass
 Warmup Convergence Information,THERMAL ZONE 58,RunPeriod: RUN PERIOD 1,3.3508769044E-003,7.0745179487E-003,Pass,Pass,0.2625799024,0.8110234787,Pass,Pass
 Warmup Convergence Information,THERMAL ZONE 41,RunPeriod: RUN PERIOD 1,2.0380274788E-003,1.8565495753E-003,Pass,Pass,0.1706025409,0.4554425028,Pass,Pass
 Warmup Convergence Information,THERMAL ZONE 38,RunPeriod: RUN PERIOD 1,5.1312416482E-002,7.7756228358E-002,Pass,Pass,0.4425325821,3.1825225626,Pass,Pass
 Warmup Convergence Information,THERMAL ZONE 37,RunPeriod: RUN PERIOD 1,1.8006684323E-003,1.5452812338E-003,Pass,Pass,0.1956935555,0.6320601578,Pass,Pass
 Warmup Convergence Information,THERMAL ZONE 39,RunPeriod: RUN PERIOD 1,5.1480646927E-002,7.7805961242E-002,Pass,Pass,0.1348029870,0.3380240752,Pass,Pass
 Warmup Convergence Information,THERMAL ZONE 92,RunPeriod: RUN PERIOD 1,3.7153278118E-003,8.6590404555E-003,Pass,Pass,0.2800163965,1.0035654733,Pass,Pass
 Warmup Convergence Information,THERMAL ZONE 56,RunPeriod: RUN PERIOD 1,6.4411242441E-003,1.7368025216E-002,Pass,Pass,0.3200381729,1.4007351104,Pass,Pass
 Warmup Convergence Information,THERMAL ZONE 59,RunPeriod: RUN PERIOD 1,6.7838244933E-002,0.1137777821,Pass,Pass,0.3425012435,1.4837003507,Pass,Pass
 Warmup Convergence Information,THERMAL ZONE 76,RunPeriod: RUN PERIOD 1,1.6023743455E-003,1.3889474566E-003,Pass,Pass,0.1163159369,0.2658228609,Pass,Pass
 Warmup Convergence Information,THERMAL ZONE 77,RunPeriod: RUN PERIOD 1,5.1241123321E-002,7.6559699852E-002,Pass,Pass,0.1507188410,0.2959822461,Pass,Pass
 Warmup Convergence Information,THERMAL ZONE 93,RunPeriod: RUN PERIOD 1,3.8840043898E-002,6.2551176528E-002,Pass,Pass,6.2273849660E-002,0.2227342610,Pass,Pass
 Warmup Convergence Information,THERMAL ZONE 25,RunPeriod: RUN PERIOD 1,2.2153377995E-003,1.8979381112E-003,Pass,Pass,0.3169585919,1.3199759623,Pass,Pass
 Warmup Convergence Information,THERMAL ZONE 35,RunPeriod: RUN PERIOD 1,1.9949353881E-003,1.7996485028E-003,Pass,Pass,0.3251742609,1.7692267556,Pass,Pass
 Warmup Convergence Information,THERMAL ZONE 66,RunPeriod: RUN PERIOD 1,1.9941190526E-003,1.7837361707E-003,Pass,Pass,0.1607451925,0.3935232071,Pass,Pass
 Warmup Convergence Information,THERMAL ZONE 79,RunPeriod: RUN PERIOD 1,5.6497949306E-002,0.1117238754,Pass,Pass,0.1447769598,0.3228543048,Pass,Pass
 Warmup Convergence Information,THERMAL ZONE 34,RunPeriod: RUN PERIOD 1,5.0714523451E-002,7.7218113213E-002,Pass,Pass,0.2037914751,0.4560600456,Pass,Pass
 Warmup Convergence Information,THERMAL ZONE 1,RunPeriod: RUN PERIOD 1,1.8932097253E-003,1.5150418551E-003,Pass,Pass,0.1465384573,0.3471614538,Pass,Pass
 Warmup Convergence Information,THERMAL ZONE 73,RunPeriod: RUN PERIOD 1,4.8474804079E-002,7.4775177133E-002,Pass,Pass,0.1433674871,0.2700657357,Pass,Pass
 Warmup Convergence Information,THERMAL ZONE 55,RunPeriod: RUN PERIOD 1,2.2943598559E-003,2.0490886728E-003,Pass,Pass,0.3133789545,1.4336561188,Pass,Pass
 Warmup Convergence Information,THERMAL ZONE 9,RunPeriod: RUN PERIOD 1,3.5632240469E-003,9.0640551481E-003,Pass,Pass,0.3002989294,1.2231116457,Pass,Pass
 Warmup Convergence Information,THERMAL ZONE 90,RunPeriod: RUN PERIOD 1,6.6362546924E-002,0.1118792111,Pass,Pass,0.2726623676,1.1260585484,Pass,Pass
 Warmup Convergence Information,THERMAL ZONE 71,RunPeriod: RUN PERIOD 1,2.7180885672E-003,2.8433343908E-003,Pass,Pass,5.0574707759E-002,0.1205914071,Pass,Pass
 Warmup Convergence Information,THERMAL ZONE 86,RunPeriod: RUN PERIOD 1,1.8741340890E-003,1.8664335642E-003,Pass,Pass,0.1108971656,0.2544539623,Pass,Pass
 Warmup Convergence Information,THERMAL ZONE 30,RunPeriod: RUN PERIOD 1,5.0861025781E-002,7.7358206510E-002,Pass,Pass,0.1712548901,0.3525323609,Pass,Pass
 Warmup Convergence Information,THERMAL ZONE 8,RunPeriod: RUN PERIOD 1,3.4147171652E-003,8.1831951701E-003,Pass,Pass,0.4596624753,2.3599291808,Pass,Pass
 Warmup Convergence Information,THERMAL ZONE 45,RunPeriod: RUN PERIOD 1,5.1262049607E-002,7.7613345839E-002,Pass,Pass,0.5284798557,3.9694045308,Pass,Pass
 Warmup Convergence Information,THERMAL ZONE 40,RunPeriod: RUN PERIOD 1,2.2143204887E-003,1.8132391554E-003,Pass,Pass,0.2158970425,0.6711478955,Pass,Pass
 Warmup Convergence Information,THERMAL ZONE 46,RunPeriod: RUN PERIOD 1,1.9226537486E-003,1.7943474496E-003,Pass,Pass,0.1858177104,0.5610056883,Pass,Pass
 Warmup Convergence Information,THERMAL ZONE 62,RunPeriod: RUN PERIOD 1,2.2599244272E-003,2.8616814082E-003,Pass,Pass,0.2438569713,0.8133135716,Pass,Pass
 Warmup Convergence Information,THERMAL ZONE 18,RunPeriod: RUN PERIOD 1,3.7180489297E-003,7.7332212073E-003,Pass,Pass,0.5812776521,3.6102996571,Pass,Pass
 Warmup Convergence Information,THERMAL ZONE 57,RunPeriod: RUN PERIOD 1,2.3742386059E-003,2.0050815527E-003,Pass,Pass,5.0069161881E-002,0.1153244278,Pass,Pass
 Warmup Convergence Information,THERMAL ZONE 98,RunPeriod: RUN PERIOD 1,6.7342800472E-002,0.1132730847,Pass,Pass,0.5183988282,3.2998142074,Pass,Pass
 Warmup Convergence Information,THERMAL ZONE 48,RunPeriod: RUN PERIOD 1,1.7239144327E-003,1.4252654556E-003,Pass,Pass,0.1234185942,0.2938211917,Pass,Pass
 Warmup Convergence Information,THERMAL ZONE 21,RunPeriod: RUN PERIOD 1,5.0466423410E-002,7.6945359107E-002,Pass,Pass,0.3212142088,1.4557470783,Pass,Pass
 Warmup Convergence Information,THERMAL ZONE 7,RunPeriod: RUN PERIOD 1,5.0907589509E-002,7.7356891811E-002,Pass,Pass,0.6883531610,5.2799957853,Pass,Pass
 Warmup Convergence Information,THERMAL ZONE 85,RunPeriod: RUN PERIOD 1,1.9621843852E-003,1.8530820233E-003,Pass,Pass,0.5324699250,3.7290298981,Pass,Pass
 Warmup Convergence Information,THERMAL ZONE 60,RunPeriod: RUN PERIOD 1,1.6544923397E-003,1.4743305891E-003,Pass,Pass,0.1143934392,0.2582167943,Pass,Pass
 Warmup Convergence Information,THERMAL ZONE 43,RunPeriod: RUN PERIOD 1,1.7881030256E-003,1.9656217160E-003,Pass,Pass,0.2432087842,0.6081997902,Pass,Pass
 Warmup Convergence Information,THERMAL ZONE 19,RunPeriod: RUN PERIOD 1,4.1077950357E-003,1.0599688547E-002,Pass,Pass,0.4377667601,2.5926567997,Pass,Pass
 Warmup Convergence Information,THERMAL ZONE 89,RunPeriod: RUN PERIOD 1,6.7824914298E-002,0.1144383674,Pass,Pass,0.3899585585,1.6158021554,Pass,Pass
 Warmup Convergence Information,THERMAL ZONE 53,RunPeriod: RUN PERIOD 1,5.0744144796E-002,7.7284212260E-002,Pass,Pass,0.1925262701,0.4741044251,Pass,Pass
 Warmup Convergence Information,THERMAL ZONE 80,RunPeriod: RUN PERIOD 1,7.0652862868E-002,0.1176799482,Pass,Pass,0.2733763837,0.8760909693,Pass,Pass
 Warmup Convergence Information,THERMAL ZONE 78,RunPeriod: RUN PERIOD 1,1.8223401214E-003,1.6141108399E-003,Pass,Pass,9.4767405736E-002,0.2134089453,Pass,Pass
 Warmup Convergence Information,THERMAL ZONE 69,RunPeriod: RUN PERIOD 1,1.9344995189E-003,1.5424214775E-003,Pass,Pass,0.2250062576,0.8469403061,Pass,Pass
 Warmup Convergence Information,THERMAL ZONE 28,RunPeriod: RUN PERIOD 1,6.8325117682E-002,0.1144827446,Pass,Pass,0.3903093180,1.5751190763,Pass,Pass
 Warmup Convergence Information,THERMAL ZONE 10,RunPeriod: RUN PERIOD 1,4.5040539719E-003,1.1352431912E-002,Pass,Pass,0.8608189615,6.6903839470,Pass,Pass
 Warmup Convergence Information,THERMAL ZONE 5,RunPeriod: RUN PERIOD 1,2.3194103160E-003,2.0781663704E-003,Pass,Pass,0.4116572136,2.2248250920,Pass,Pass
 Warmup Convergence Information,THERMAL ZONE 27,RunPeriod: RUN PERIOD 1,2.0847402547E-003,1.9232668792E-003,Pass,Pass,0.2383198910,0.8214742270,Pass,Pass
 Warmup Convergence Information,THERMAL ZONE 81,RunPeriod: RUN PERIOD 1,1.8204308250E-003,1.8488875058E-003,Pass,Pass,0.1376932332,0.3190910480,Pass,Pass
 Warmup Convergence Information,THERMAL ZONE 68,RunPeriod: RUN PERIOD 1,3.9622396799E-003,9.4911623691E-003,Pass,Pass,0.2936473079,1.1371541261,Pass,Pass
 Warmup Convergence Information,THERMAL ZONE 67,RunPeriod: RUN PERIOD 1,2.4194873919E-003,2.3544088804E-003,Pass,Pass,0.1086346623,0.2413152830,Pass,Pass
 Warmup Convergence Information,THERMAL ZONE 61,RunPeriod: RUN PERIOD 1,4.0681732416E-003,9.9789353348E-003,Pass,Pass,0.3310231826,1.6364661561,Pass,Pass
 Warmup Convergence Information,THERMAL ZONE 100,RunPeriod: RUN PERIOD 1,3.4953291196E-002,7.3723667014E-002,Pass,Pass,0.2487935533,0.6995347254,Pass,Pass
 Warmup Convergence Information,THERMAL ZONE 91,RunPeriod: RUN PERIOD 1,1.6512103200E-003,1.4510125394E-003,Pass,Pass,0.4880964262,3.0743771388,Pass,Pass
 Warmup Convergence Information,THERMAL ZONE 75,RunPeriod: RUN PERIOD 1,5.0665791521E-002,7.7098691582E-002,Pass,Pass,0.8761657162,4.7590328841,Pass,Pass
 Warmup Convergence Information,THERMAL ZONE 36,RunPeriod: RUN PERIOD 1,3.0170788180E-003,6.0844350136E-003,Pass,Pass,0.2176721849,0.5369614190,Pass,Pass
 Warmup Convergence Information,THERMAL ZONE 15,RunPeriod: RUN PERIOD 1,2.0704725086E-003,2.1725001909E-003,Pass,Pass,0.1074267042,0.2405839486,Pass,Pass
 Warmup Convergence Information,THERMAL ZONE 88,RunPeriod: RUN PERIOD 1,4.5387008900E-003,1.2286860924E-002,Pass,Pass,1.3090315433,10.9804298849,Pass,Pass
 Warmup Convergence Information,THERMAL ZONE 16,RunPeriod: RUN PERIOD 1,7.2421880548E-002,0.1192348212,Pass,Pass,0.2947481147,0.9820342716,Pass,Pass
 Warmup Convergence Information,THERMAL ZONE 11,RunPeriod: RUN PERIOD 1,2.0394611825E-003,1.7596768672E-003,Pass,Pass,0.1470749125,0.3556671097,Pass,Pass
 Warmup Convergence Information,THERMAL ZONE 44,RunPeriod: RUN PERIOD 1,2.1841637045E-003,1.7815133979E-003,Pass,Pass,0.2525364024,1.0134111881,Pass,Pass
 Warmup Convergence Information,THERMAL ZONE 70,RunPeriod: RUN PERIOD 1,2.0080882439E-003,1.9144847906E-003,Pass,Pass,0.3453469783,1.9624019161,Pass,Pass
 Warmup Convergence Information,THERMAL ZONE 97,RunPeriod: RUN PERIOD 1,3.0908239754E-003,6.3657102802E-003,Pass,Pass,0.2320462348,0.6151109176,Pass,Pass
 Warmup Convergence Information,THERMAL ZONE 84,RunPeriod: RUN PERIOD 1,2.3180366996E-003,1.7511614453E-003,Pass,Pass,0.1584321850,0.3818720930,Pass,Pass
 Warmup Convergence Information,THERMAL ZONE 14,RunPeriod: RUN PERIOD 1,5.1635388446E-002,7.7851398129E-002,Pass,Pass,0.1342755110,0.3445018200,Pass,Pass
 Warmup Convergence Information,THERMAL ZONE 12,RunPeriod: RUN PERIOD 1,2.5782532754E-002,5.3556951462E-002,Pass,Pass,0.1438094634,0.4677653702,Pass,Pass
 Warmup Convergence Information,THERMAL ZONE 83,RunPeriod: RUN PERIOD 1,1.9836350402E-003,1.6920134035E-003,Pass,Pass,0.1702856964,0.4496008364,Pass,Pass
 Warmup Convergence Information,THERMAL ZONE 52,RunPeriod: RUN PERIOD 1,2.7534850410E-003,5.3915488363E-003,Pass,Pass,0.2155073933,0.5247333829,Pass,Pass
 Warmup Convergence Information,THERMAL ZONE 33,RunPeriod: RUN PERIOD 1,1.5803742425E-003,1.6264568529E-003,Pass,Pass,0.1113630109,0.2522982388,Pass,Pass
 Warmup Convergence Information,THERMAL ZONE 82,RunPeriod: RUN PERIOD 1,1.6497665029E-003,1.6333945180E-003,Pass,Pass,0.1320791619,0.3012674298,Pass,Pass
 Warmup Convergence Information,THERMAL ZONE 3,RunPeriod: RUN PERIOD 1,7.1713760269E-002,0.1174886313,Pass,Pass,1.1728825921,9.4140700264,Pass,Pass
 Warmup Convergence Information,THERMAL ZONE 49,RunPeriod: RUN PERIOD 1,6.9131566209E-002,0.1159078627,Pass,Pass,0.7141718585,3.8871644558,Pass,Pass
 Warmup Convergence Information,THERMAL ZONE 13,RunPeriod: RUN PERIOD 1,1.8889047693E-003,1.8322506144E-003,Pass,Pass,0.2124966631,0.7701828689,Pass,Pass
 Warmup Convergence Information,THERMAL ZONE 42,RunPeriod: RUN PERIOD 1,5.1074496137E-002,7.7485675803E-002,Pass,Pass,0.1578994536,0.3698448567,Pass,Pass
 Warmup Convergence Information,THERMAL ZONE 47,RunPeriod: RUN PERIOD 1,2.1072405132E-003,1.8689380751E-003,Pass,Pass,0.1042243439,0.2355947700,Pass,Pass
 Warmup Convergence Information,THERMAL ZONE 64,RunPeriod: RUN PERIOD 1,2.1808522926E-003,1.7909264277E-003,Pass,Pass,0.2332978778,0.7334367956,Pass,Pass
 Warmup Convergence Information,THERMAL ZONE 54,RunPeriod: RUN PERIOD 1,6.9810304421E-002,0.1170924887,Pass,Pass,0.2663920775,0.8068255184,Pass,Pass
 Warmup Convergence Information,THERMAL ZONE 74,RunPeriod: RUN PERIOD 1,5.0585211598E-002,7.7225777491E-002,Pass,Pass,2.2328631355,17.9882566392,Pass,Pass
 Warmup Convergence Information,THERMAL ZONE 6,RunPeriod: RUN PERIOD 1,1.7906378021E-003,1.6064840192E-003,Pass,Pass,0.1587047960,0.3927728959,Pass,Pass
 Warmup Convergence Information,THERMAL ZONE 23,RunPeriod: RUN PERIOD 1,6.8643983829E-002,0.1156721116,Pass,Pass,0.7271997798,3.9104330600,Pass,Pass
 Warmup Convergence Information,THERMAL ZONE 63,RunPeriod: RUN PERIOD 1,6.9281523828E-002,0.1164642447,Pass,Pass,0.3662611058,1.3370026543,Pass,Pass
 Warmup Convergence Information,THERMAL ZONE 29,RunPeriod: RUN PERIOD 1,2.1001152889E-003,1.9023815272E-003,Pass,Pass,0.2332614963,0.7084670831,Pass,Pass
 Warmup Convergence Information,THERMAL ZONE 96,RunPeriod: RUN PERIOD 1,6.8469012613E-002,0.1148102660,Pass,Pass,1.3451053429,10.5957572421,Pass,Pass
 Warmup Convergence Information,THERMAL ZONE 26,RunPeriod: RUN PERIOD 1,3.5631411710E-003,7.3090515456E-003,Pass,Pass,0.2777624758,0.8938237779,Pass,Pass
 Warmup Convergence Information,THERMAL ZONE 17,RunPeriod: RUN PERIOD 1,7.0212664375E-002,0.1173848169,Pass,Pass,0.2514066281,0.7278379027,Pass,Pass
 Warmup Convergence Information,THERMAL ZONE 72,RunPeriod: RUN PERIOD 1,6.7785708056E-002,0.1140919274,Pass,Pass,0.3384011398,1.3832800813,Pass,Pass
 Warmup Convergence Information,THERMAL ZONE 31,RunPeriod: RUN PERIOD 1,5.4361127400E-003,1.4972904386E-002,Pass,Pass,0.4074182673,2.2716162925,Pass,Pass
 Warmup Convergence Information,THERMAL ZONE 22,RunPeriod: RUN PERIOD 1,6.7381185640E-002,0.1136967820,Pass,Pass,0.3894854619,1.9785772540,Pass,Pass
 Warmup Convergence Information,THERMAL ZONE 87,RunPeriod: RUN PERIOD 1,2.9669352948E-003,6.7475547975E-003,Pass,Pass,0.2412910924,0.6674910899,Pass,Pass
 Warmup Convergence Information,THERMAL ZONE 2,RunPeriod: RUN PERIOD 1,2.3630029448E-003,2.5035008964E-003,Pass,Pass,0.5654217798,2.1047020651,Pass,Pass
! <Program Control Information:Threads/Parallel Sims>, Threading Supported,Maximum Number of Threads, Env Set Threads (OMP_NUM_THREADS), EP Env Set Threads (EP_OMP_NUM_THREADS), IDF Set Threads, Number of Threads Used (Interior Radiant Exchange), Number Nominal Surfaces, Number Parallel Sims
Program Control:Threads/Parallel Sims, Yes,1, Not Set, Not Set, 1, 1, 680, N/A
End of Data
