Program Version,EnergyPlus-Linux-OMP-32 7.2.0.006, YMD=2013.01.30 13:21
! <Version>, Version ID
 Version, 7.2
! <Timesteps per Hour>, #TimeSteps, Minutes per TimeStep {minutes}
 Timesteps per Hour,  4, 15
! <System Convergence Limits>, Minimum System TimeStep {minutes}, Max HVAC Iterations,  Minimum Plant Iterations, Maximum Plant Iterations
 System Convergence Limits, 1, 20, 2, 8
! <Simulation Control>, Do Zone Sizing, Do System Sizing, Do Plant Sizing, Do Design Days, Do Weather Simulation
 Simulation Control, Yes, Yes, Yes, Yes, Yes
! <Output Reporting Tolerances>, Tolerance for Time Heating Setpoint Not Met, Tolerance for Time Cooling Setpoint Not Met
 Output Reporting Tolerances, 0.200, 0.200, 
! <Site:GroundTemperature:BuildingSurface>, Months From Jan to Dec {Deg C}
 Site:GroundTemperature:BuildingSurface,  18.00,  18.00,  18.00,  18.00,  18.00,  18.00,  18.00,  18.00,  18.00,  18.00,  18.00,  18.00
! <Site:GroundTemperature:FCfactorMethod>, Months From Jan to Dec {Deg C}
 Site:GroundTemperature:FCfactorMethod,   1.62,   0.54,   2.47,   5.49,  13.39,  19.49,  23.60,  24.85,  22.72,  17.98,  11.66,   5.79
! <Site:GroundTemperature:Shallow>, Months From Jan to Dec {Deg C}
 Site:GroundTemperature:Shallow,  13.00,  13.00,  13.00,  13.00,  13.00,  13.00,  13.00,  13.00,  13.00,  13.00,  13.00,  13.00
! <Site:GroundTemperature:Deep>, Months From Jan to Dec {Deg C}
 Site:GroundTemperature:Deep,  16.00,  16.00,  16.00,  16.00,  16.00,  16.00,  16.00,  16.00,  16.00,  16.00,  16.00,  16.00
! <Site:GroundReflectance>, Months From Jan to Dec {dimensionless}
 Site:GroundReflectance,  0.20,  0.20,  0.20,  0.20,  0.20,  0.20,  0.20,  0.20,  0.20,  0.20,  0.20,  0.20
! <Site:GroundReflectance:SnowModifier>, Normal, Daylighting {dimensionless}
 Site:GroundReflectance:SnowModifier,   1.000,   1.000
! <Site:GroundReflectance:Snow>, Months From Jan to Dec {dimensionless}
 Site:GroundReflectance:Snow,  0.20,  0.20,  0.20,  0.20,  0.20,  0.20,  0.20,  0.20,  0.20,  0.20,  0.20,  0.20
! <Site:GroundReflectance:Snow:Daylighting>, Months From Jan to Dec {dimensionless}
 Site:GroundReflectance:Snow:Daylighting,  0.20,  0.20,  0.20,  0.20,  0.20,  0.20,  0.20,  0.20,  0.20,  0.20,  0.20,  0.20
! <Environment:Weather Station>,Wind Sensor Height Above Ground {m},Wind Speed Profile Exponent {},Wind Speed Profile Boundary Layer Thickness {m},Air Temperature Sensor Height Above Ground {m},Wind Speed Modifier Coefficient [Internal],Temperature Modifier Coefficient [Internal]
Environment:Weather Station,10.000,0.140,270.000,1.500,1.586,9.750E-003
! <Site:Location>, Location Name, Latitude {N+/S- Deg}, Longitude {E+/W- Deg},  Time Zone Number {GMT+/-}, Elevation {m},  Standard Pressure at Elevation {Pa}, Standard RhoAir at Elevation
Site:Location,Philadelphia International Ap PA USA TMY3 WMO#=724080,39.87,-75.23,-5.00,2.00,101301,1.2040
! <Building Information>, Building Name,North Axis {deg},Terrain,  Loads Convergence Tolerance Value,Temperature Convergence Tolerance Value,  Solar Distribution,Maximum Number of Warmup Days,Minimum Number of Warmup Days
 Building Information,Building 1,0.000,Suburbs,4.00000E-002,0.40000,FullExterior,25,6
! <Inside Convection Algorithm>, Algorithm {Simple | TARP | CeilingDiffuser | AdaptiveConvectionAlgorithm}
Inside Convection Algorithm,TARP
! <Outside Convection Algorithm>, Algorithm {SimpleCombined | TARP | MoWitt | DOE-2 | AdaptiveConvectionAlgorithm}
Outside Convection Algorithm,DOE-2
! <Sky Radiance Distribution>, Value {Anisotropic}
Sky Radiance Distribution,Anisotropic
! <Zone Air Solution Algorithm>, Value {ThirdOrderBackwardDifference | AnalyticalSolution | EulerMethod}
 Zone Air Solution Algorithm, ThirdOrderBackwardDifference
! <Zone Air Contaminant Balance Simulation>, Simulation {Yes/No}, Carbon Dioxide Concentration
 Zone Air Carbon Dioxide Balance Simulation, No,N/A
! <Zone Air Contaminant Balance Simulation>, Simulation {Yes/No}, Generic Contaminant Concentration
 Zone Air Generic Contaminant Balance Simulation, No,N/A
! <Environment:Site Atmospheric Variation>,Wind Speed Profile Exponent {},Wind Speed Profile Boundary Layer Thickness {m},Air Temperature Gradient Coefficient {K/m}
Environment:Site Atmospheric Variation,0.220,370.000,6.500000E-003
! <SurfaceGeometry>,Starting Corner,Vertex Input Direction,Coordinate System,Daylight Reference Point Coordinate System,Rectangular (Simple) Surface Coordinate System
 Surface Geometry,UpperLeftCorner,Counterclockwise,RelativeCoordinateSystem,RelativeCoordinateSystem,RelativeToZoneOrigin
! <Surface Heat Transfer Algorithm>, Value {CTF - ConductionTransferFunction | EMPD - MoisturePenetrationDepthConductionTransferFunction | CondFD - ConductionFiniteDifference | HAMT - CombinedHeatAndMoistureFiniteElement} - Description,Inside Surface Max Temperature Limit{C}, Surface Convection Coefficient Lower Limit {W/m2-K}, Surface Convection Coefficient Upper Limit {W/m2-K}
Surface Heat Transfer Algorithm, CTF - ConductionTransferFunction,200,0.10,1000.0
! <Shading Summary>, Number of Fixed Detached Shades, Number of Building Detached Shades, Number of Attached Shades
 Shading Summary,0,0,0
! <Zone Summary>, Number of Zones, Number of Zone Surfaces, Number of SubSurfaces
 Zone Summary,15,102,12
! <Zone Information>,Zone Name,North Axis {deg},Origin X-Coordinate {m},Origin Y-Coordinate {m},Origin Z-Coordinate {m},Centroid X-Coordinate {m},Centroid Y-Coordinate {m},Centroid Z-Coordinate {m},Type,Zone Multiplier,Zone List Multiplier,Minimum X {m},Maximum X {m},Minimum Y {m},Maximum Y {m},Minimum Z {m},Maximum Z {m},Ceiling Height {m},Volume {m3},Zone Inside Convection Algorithm {Simple-Detailed-CeilingDiffuser-TrombeWall},Zone Outside Convection Algorithm {Simple-Detailed-Tarp-MoWitt-DOE-2-BLAST}, Floor Area {m2},Exterior Gross Wall Area {m2},Exterior Net Wall Area {m2},Exterior Window Area {m2}, Number of Surfaces, Number of SubSurfaces, Number of Shading SubSurfaces,  Part of Total Building Area
 Zone Information, THERMAL ZONE 1,0.0,3.00,3.00,4.00,5.00,5.00,6.00,1,1,1,3.00,7.00,3.00,7.00,4.00,8.00,4.00,64.00,TARP,DOE-2,16.00,0.00,0.00,0.00,6,0,0,Yes
 Zone Information, THERMAL ZONE 2,0.0,3.00,7.00,8.00,5.00,8.84,10.00,1,1,1,0.00,10.00,7.00,10.00,8.00,12.00,4.00,84.00,TARP,DOE-2,21.00,40.00,20.00,20.00,6,1,0,Yes
 Zone Information, THERMAL ZONE 15,0.0,7.00,3.00,4.00,8.84,5.00,6.00,1,1,1,7.00,10.00,0.00,10.00,4.00,8.00,4.00,84.00,TARP,DOE-2,21.00,40.00,20.00,20.00,6,1,0,Yes
 Zone Information, THERMAL ZONE 3,0.0,3.00,7.00,0.00,5.00,8.84,2.00,1,1,1,0.00,10.00,7.00,10.00,0.00,4.00,4.00,84.00,TARP,DOE-2,21.00,40.00,20.00,20.00,6,1,0,Yes
 Zone Information, THERMAL ZONE 10,0.0,3.00,3.00,0.00,5.00,5.00,2.00,1,1,1,3.00,7.00,3.00,7.00,0.00,4.00,4.00,64.00,TARP,DOE-2,16.00,0.00,0.00,0.00,6,0,0,Yes
 Zone Information, THERMAL ZONE 8,0.0,0.00,0.00,4.00,5.00,1.16,6.00,1,1,1,0.00,10.00,0.00,3.00,4.00,8.00,4.00,84.00,TARP,DOE-2,21.00,40.00,20.00,20.00,6,1,0,Yes
 Zone Information, THERMAL ZONE 6,0.0,3.00,3.00,8.00,5.00,5.00,10.00,1,1,1,3.00,7.00,3.00,7.00,8.00,12.00,4.00,64.00,TARP,DOE-2,16.00,0.00,0.00,0.00,6,0,0,Yes
 Zone Information, THERMAL ZONE 5,0.0,0.00,0.00,8.00,5.00,1.16,10.00,1,1,1,0.00,10.00,0.00,3.00,8.00,12.00,4.00,84.00,TARP,DOE-2,21.00,40.00,20.00,20.00,6,1,0,Yes
 Zone Information, THERMAL ZONE 13,0.0,3.00,7.00,4.00,5.00,8.84,6.00,1,1,1,0.00,10.00,7.00,10.00,4.00,8.00,4.00,84.00,TARP,DOE-2,21.00,40.00,20.00,20.00,6,1,0,Yes
 Zone Information, THERMAL ZONE 12,0.0,7.00,3.00,0.00,8.84,5.00,2.00,1,1,1,7.00,10.00,0.00,10.00,0.00,4.00,4.00,84.00,TARP,DOE-2,21.00,40.00,20.00,20.00,6,1,0,Yes
 Zone Information, THERMAL ZONE 14,0.0,0.00,0.00,0.00,5.00,1.16,2.00,1,1,1,0.00,10.00,0.00,3.00,0.00,4.00,4.00,84.00,TARP,DOE-2,21.00,40.00,20.00,20.00,6,1,0,Yes
 Zone Information, THERMAL ZONE 4,0.0,0.00,0.00,8.00,1.16,5.00,10.00,1,1,1,0.00,3.00,0.00,10.00,8.00,12.00,4.00,84.00,TARP,DOE-2,21.00,40.00,20.00,20.00,6,1,0,Yes
 Zone Information, THERMAL ZONE 7,0.0,7.00,3.00,8.00,8.84,5.00,10.00,1,1,1,7.00,10.00,0.00,10.00,8.00,12.00,4.00,84.00,TARP,DOE-2,21.00,40.00,20.00,20.00,6,1,0,Yes
 Zone Information, THERMAL ZONE 9,0.0,0.00,0.00,0.00,1.16,5.00,2.00,1,1,1,0.00,3.00,0.00,10.00,0.00,4.00,4.00,84.00,TARP,DOE-2,21.00,40.00,20.00,20.00,6,1,0,Yes
 Zone Information, THERMAL ZONE 11,0.0,0.00,0.00,4.00,1.16,5.00,6.00,1,1,1,0.00,3.00,0.00,10.00,4.00,8.00,4.00,84.00,TARP,DOE-2,21.00,40.00,20.00,20.00,6,1,0,Yes
! <Zone Internal Gains/Equipment Information - Nominal>,Zone Name, Floor Area {m2},# Occupants,Area per Occupant {m2/person},Occupant per Area {person/m2},Interior Lighting {W/m2},Electric Load {W/m2},Gas Load {W/m2},Other Load {W/m2},Hot Water Eq {W/m2},Steam Equipment {W/m2},Sum Loads per Area {W/m2},Outdoor Controlled Baseboard Heat
 Zone Internal Gains, THERMAL ZONE 1,16.00,0.0,N/A,0.000,0.000,0.000,0.000,0.000,0.000,0.000,0.000,No
 Zone Internal Gains, THERMAL ZONE 2,21.00,0.0,N/A,0.000,0.000,0.000,0.000,0.000,0.000,0.000,0.000,No
 Zone Internal Gains, THERMAL ZONE 15,21.00,0.0,N/A,0.000,0.000,0.000,0.000,0.000,0.000,0.000,0.000,No
 Zone Internal Gains, THERMAL ZONE 3,21.00,0.0,N/A,0.000,0.000,0.000,0.000,0.000,0.000,0.000,0.000,No
 Zone Internal Gains, THERMAL ZONE 10,16.00,0.0,N/A,0.000,0.000,0.000,0.000,0.000,0.000,0.000,0.000,No
 Zone Internal Gains, THERMAL ZONE 8,21.00,0.0,N/A,0.000,0.000,0.000,0.000,0.000,0.000,0.000,0.000,No
 Zone Internal Gains, THERMAL ZONE 6,16.00,0.0,N/A,0.000,0.000,0.000,0.000,0.000,0.000,0.000,0.000,No
 Zone Internal Gains, THERMAL ZONE 5,21.00,0.0,N/A,0.000,0.000,0.000,0.000,0.000,0.000,0.000,0.000,No
 Zone Internal Gains, THERMAL ZONE 13,21.00,0.0,N/A,0.000,0.000,0.000,0.000,0.000,0.000,0.000,0.000,No
 Zone Internal Gains, THERMAL ZONE 12,21.00,0.0,N/A,0.000,0.000,0.000,0.000,0.000,0.000,0.000,0.000,No
 Zone Internal Gains, THERMAL ZONE 14,21.00,0.0,N/A,0.000,0.000,0.000,0.000,0.000,0.000,0.000,0.000,No
 Zone Internal Gains, THERMAL ZONE 4,21.00,0.0,N/A,0.000,0.000,0.000,0.000,0.000,0.000,0.000,0.000,No
 Zone Internal Gains, THERMAL ZONE 7,21.00,0.0,N/A,0.000,0.000,0.000,0.000,0.000,0.000,0.000,0.000,No
 Zone Internal Gains, THERMAL ZONE 9,21.00,0.0,N/A,0.000,0.000,0.000,0.000,0.000,0.000,0.000,0.000,No
 Zone Internal Gains, THERMAL ZONE 11,21.00,0.0,N/A,0.000,0.000,0.000,0.000,0.000,0.000,0.000,0.000,No
! <Shadowing/Sun Position Calculations> [Annual Simulations], Value {days}, Allowable Number Figures in Shadow Overlap {}, Polygon Clipping Algorithm, Sky Diffuse Modeling Algorithm
Shadowing/Sun Position Calculations,20,15000,SutherlandHodgman,SimpleSkyDiffuseModeling
! <RoomAir Model>, Zone Name, Mixing/Mundt/UCSDDV/UCSDCV/UCSDUFI/UCSDUFE/User Defined
RoomAir Model,THERMAL ZONE 1,Mixing/Well-Stirred
RoomAir Model,THERMAL ZONE 2,Mixing/Well-Stirred
RoomAir Model,THERMAL ZONE 15,Mixing/Well-Stirred
RoomAir Model,THERMAL ZONE 3,Mixing/Well-Stirred
RoomAir Model,THERMAL ZONE 10,Mixing/Well-Stirred
RoomAir Model,THERMAL ZONE 8,Mixing/Well-Stirred
RoomAir Model,THERMAL ZONE 6,Mixing/Well-Stirred
RoomAir Model,THERMAL ZONE 5,Mixing/Well-Stirred
RoomAir Model,THERMAL ZONE 13,Mixing/Well-Stirred
RoomAir Model,THERMAL ZONE 12,Mixing/Well-Stirred
RoomAir Model,THERMAL ZONE 14,Mixing/Well-Stirred
RoomAir Model,THERMAL ZONE 4,Mixing/Well-Stirred
RoomAir Model,THERMAL ZONE 7,Mixing/Well-Stirred
RoomAir Model,THERMAL ZONE 9,Mixing/Well-Stirred
RoomAir Model,THERMAL ZONE 11,Mixing/Well-Stirred
! <AirflowNetwork Model:Control>, No Multizone or Distribution/Multizone with Distribution/Multizone without Distribution/Multizone with Distribution only during Fan Operation
AirflowNetwork Model:Control,NoMultizoneOrDistribution
! <Zone Volume Capacitance Multiplier>, Sensible Heat Capacity Multiplier, Moisture Capacity Multiplier, Carbon Dioxide Capacity Multiplier, Generic Contaminant Capacity Multiplier
Zone Volume Capacitance Multiplier,   1.000 ,   1.000,   1.000,   1.000
! <Load Timesteps in Zone Design Calculation Averaging Window>, Value
 Load Timesteps in Zone Design Calculation Averaging Window,    4
! <Heating Sizing Factor Information>, Sizing Factor ID, Value
 Heating Sizing Factor Information, Global,   1.2500    
 Heating Sizing Factor Information, Zone THERMAL ZONE 1,   1.2500    
 Heating Sizing Factor Information, Zone THERMAL ZONE 2,   1.2500    
 Heating Sizing Factor Information, Zone THERMAL ZONE 15,   1.2500    
 Heating Sizing Factor Information, Zone THERMAL ZONE 3,   1.2500    
 Heating Sizing Factor Information, Zone THERMAL ZONE 10,   1.2500    
 Heating Sizing Factor Information, Zone THERMAL ZONE 8,   1.2500    
 Heating Sizing Factor Information, Zone THERMAL ZONE 6,   1.2500    
 Heating Sizing Factor Information, Zone THERMAL ZONE 5,   1.2500    
 Heating Sizing Factor Information, Zone THERMAL ZONE 13,   1.2500    
 Heating Sizing Factor Information, Zone THERMAL ZONE 12,   1.2500    
 Heating Sizing Factor Information, Zone THERMAL ZONE 14,   1.2500    
 Heating Sizing Factor Information, Zone THERMAL ZONE 4,   1.2500    
 Heating Sizing Factor Information, Zone THERMAL ZONE 7,   1.2500    
 Heating Sizing Factor Information, Zone THERMAL ZONE 9,   1.2500    
 Heating Sizing Factor Information, Zone THERMAL ZONE 11,   1.2500    
! <Cooling Sizing Factor Information>, Sizing Factor ID, Value
 Cooling Sizing Factor Information, Global,   1.1500    
 Cooling Sizing Factor Information, Zone THERMAL ZONE 1,   1.1500    
 Cooling Sizing Factor Information, Zone THERMAL ZONE 2,   1.1500    
 Cooling Sizing Factor Information, Zone THERMAL ZONE 15,   1.1500    
 Cooling Sizing Factor Information, Zone THERMAL ZONE 3,   1.1500    
 Cooling Sizing Factor Information, Zone THERMAL ZONE 10,   1.1500    
 Cooling Sizing Factor Information, Zone THERMAL ZONE 8,   1.1500    
 Cooling Sizing Factor Information, Zone THERMAL ZONE 6,   1.1500    
 Cooling Sizing Factor Information, Zone THERMAL ZONE 5,   1.1500    
 Cooling Sizing Factor Information, Zone THERMAL ZONE 13,   1.1500    
 Cooling Sizing Factor Information, Zone THERMAL ZONE 12,   1.1500    
 Cooling Sizing Factor Information, Zone THERMAL ZONE 14,   1.1500    
 Cooling Sizing Factor Information, Zone THERMAL ZONE 4,   1.1500    
 Cooling Sizing Factor Information, Zone THERMAL ZONE 7,   1.1500    
 Cooling Sizing Factor Information, Zone THERMAL ZONE 9,   1.1500    
 Cooling Sizing Factor Information, Zone THERMAL ZONE 11,   1.1500    
! <Zone Sizing Information>, Zone Name, Load Type, Calc Des Load {W}, User Des Load {W}, Calc Des Air Flow Rate {m3/s}, User Des Air Flow Rate {m3/s}, Design Day Name, Date/Time of Peak, Temperature at Peak {C}, Humidity Ratio at Peak {kgWater/kgDryAir}, Floor Area {m2}, # Occupants, Calc Outdoor Air Flow Rate {m3/s}
 Zone Sizing Information, THERMAL ZONE 1, Cooling, 342.71370, 394.12076, 1.99203E-002, 2.29083E-002, PHILADELPHIA INTERNATIONAL AP ANN CLG .4% CONDNS DB=>MWB, 7/21 16:45:00, 32.87200, 1.48422E-002, 16.00000, 0.00000, 0.00000
 Zone Sizing Information, THERMAL ZONE 1, Heating, 302.80536, 378.50671, 1.54146E-002, 1.92682E-002, PHILADELPHIA INTERNATIONAL AP ANN HTG 99.6% CONDNS DB, 1/21 24:00:00, -10.80000, 1.48961E-003, 16.00000, 0.00000, 0.00000
 Zone Sizing Information, THERMAL ZONE 2, Cooling, 1100.26785, 1265.30803, 6.39532E-002, 7.35462E-002, PHILADELPHIA INTERNATIONAL AP ANN CLG .4% CONDNS DB=>MWB, 7/21 18:15:00, 31.39150, 1.48422E-002, 21.00000, 0.00000, 0.00000
 Zone Sizing Information, THERMAL ZONE 2, Heating, 1799.01090, 2248.76362, 9.15802E-002, 0.11448, PHILADELPHIA INTERNATIONAL AP ANN HTG 99.6% CONDNS DB, 1/21 24:00:00, -10.80000, 1.48961E-003, 21.00000, 0.00000, 0.00000
 Zone Sizing Information, THERMAL ZONE 15, Cooling, 2716.53146, 3124.01118, 0.15790, 0.18158, PHILADELPHIA INTERNATIONAL AP ANN CLG .4% CONDNS DB=>MWB, 7/21 10:45:00, 31.48550, 1.48422E-002, 21.00000, 0.00000, 0.00000
 Zone Sizing Information, THERMAL ZONE 15, Heating, 1647.40617, 2059.25772, 8.38626E-002, 0.10483, PHILADELPHIA INTERNATIONAL AP ANN HTG 99.6% CONDNS DB, 1/21 23:45:00, -10.80000, 1.48961E-003, 21.00000, 0.00000, 0.00000
 Zone Sizing Information, THERMAL ZONE 3, Cooling, 562.77591, 647.19230, 3.27114E-002, 3.76181E-002, PHILADELPHIA INTERNATIONAL AP ANN CLG .4% CONDNS DB=>MWB, 7/21 18:15:00, 31.39150, 1.48422E-002, 21.00000, 0.00000, 0.00000
 Zone Sizing Information, THERMAL ZONE 3, Heating, 1699.71038, 2124.63798, 8.65252E-002, 0.10816, PHILADELPHIA INTERNATIONAL AP ANN HTG 99.6% CONDNS DB, 1/21 23:15:00, -10.80000, 1.48961E-003, 21.00000, 0.00000, 0.00000
 Zone Sizing Information, THERMAL ZONE 10, Cooling, 67.04646, 77.10343, 3.89707E-003, 4.48163E-003, PHILADELPHIA INTERNATIONAL AP ANN CLG .4% CONDNS DB=>MWB, 7/21 16:30:00, 33.06000, 1.48422E-002, 16.00000, 0.00000, 0.00000
 Zone Sizing Information, THERMAL ZONE 10, Heating, 397.68694, 497.10868, 2.02446E-002, 2.53057E-002, PHILADELPHIA INTERNATIONAL AP ANN HTG 99.6% CONDNS DB, 1/21 24:00:00, -10.80000, 1.48961E-003, 16.00000, 0.00000, 0.00000
 Zone Sizing Information, THERMAL ZONE 8, Cooling, 2415.61040, 2777.95196, 0.14041, 0.16147, PHILADELPHIA INTERNATIONAL AP ANN CLG .4% CONDNS DB=>MWB, 7/21 14:15:00, 34.00000, 1.48422E-002, 21.00000, 0.00000, 0.00000
 Zone Sizing Information, THERMAL ZONE 8, Heating, 1647.40617, 2059.25772, 8.38626E-002, 0.10483, PHILADELPHIA INTERNATIONAL AP ANN HTG 99.6% CONDNS DB, 1/21 24:00:00, -10.80000, 1.48961E-003, 21.00000, 0.00000, 0.00000
 Zone Sizing Information, THERMAL ZONE 6, Cooling, 396.71872, 456.22653, 2.30593E-002, 2.65182E-002, PHILADELPHIA INTERNATIONAL AP ANN CLG .4% CONDNS DB=>MWB, 7/21 17:00:00, 32.68400, 1.48422E-002, 16.00000, 0.00000, 0.00000
 Zone Sizing Information, THERMAL ZONE 6, Heating, 396.35292, 495.44115, 2.01767E-002, 2.52209E-002, PHILADELPHIA INTERNATIONAL AP ANN HTG 99.6% CONDNS DB, 1/21 21:00:00, -10.80000, 1.48961E-003, 16.00000, 0.00000, 0.00000
 Zone Sizing Information, THERMAL ZONE 5, Cooling, 2432.98858, 2797.93687, 0.14142, 0.16263, PHILADELPHIA INTERNATIONAL AP ANN CLG .4% CONDNS DB=>MWB, 7/21 14:00:00, 34.00000, 1.48422E-002, 21.00000, 0.00000, 0.00000
 Zone Sizing Information, THERMAL ZONE 5, Heating, 1771.79978, 2214.74973, 9.01950E-002, 0.11274, PHILADELPHIA INTERNATIONAL AP ANN HTG 99.6% CONDNS DB, 1/21 18:30:00, -10.80000, 1.48961E-003, 21.00000, 0.00000, 0.00000
 Zone Sizing Information, THERMAL ZONE 13, Cooling, 1034.57573, 1189.76209, 6.01349E-002, 6.91551E-002, PHILADELPHIA INTERNATIONAL AP ANN CLG .4% CONDNS DB=>MWB, 7/21 18:15:00, 31.39150, 1.48422E-002, 21.00000, 0.00000, 0.00000
 Zone Sizing Information, THERMAL ZONE 13, Heating, 1671.86402, 2089.83003, 8.51077E-002, 0.10638, PHILADELPHIA INTERNATIONAL AP ANN HTG 99.6% CONDNS DB, 1/21 24:00:00, -10.80000, 1.48961E-003, 21.00000, 0.00000, 0.00000
 Zone Sizing Information, THERMAL ZONE 12, Cooling, 2152.41726, 2475.27985, 0.12511, 0.14388, PHILADELPHIA INTERNATIONAL AP ANN CLG .4% CONDNS DB=>MWB, 7/21 10:00:00, 30.42800, 1.48422E-002, 21.00000, 0.00000, 0.00000
 Zone Sizing Information, THERMAL ZONE 12, Heating, 1683.16864, 2103.96080, 8.56832E-002, 0.10710, PHILADELPHIA INTERNATIONAL AP ANN HTG 99.6% CONDNS DB, 1/21 24:00:00, -10.80000, 1.48961E-003, 21.00000, 0.00000, 0.00000
 Zone Sizing Information, THERMAL ZONE 14, Cooling, 1879.23239, 2161.11725, 0.10923, 0.12562, PHILADELPHIA INTERNATIONAL AP ANN CLG .4% CONDNS DB=>MWB, 7/21 13:30:00, 33.76500, 1.48422E-002, 21.00000, 0.00000, 0.00000
 Zone Sizing Information, THERMAL ZONE 14, Heating, 1683.16864, 2103.96080, 8.56832E-002, 0.10710, PHILADELPHIA INTERNATIONAL AP ANN HTG 99.6% CONDNS DB, 1/21 24:00:00, -10.80000, 1.48961E-003, 21.00000, 0.00000, 0.00000
 Zone Sizing Information, THERMAL ZONE 4, Cooling, 3176.20562, 3652.63646, 0.18462, 0.21231, PHILADELPHIA INTERNATIONAL AP ANN CLG .4% CONDNS DB=>MWB, 7/21 17:00:00, 32.68400, 1.48422E-002, 21.00000, 0.00000, 0.00000
 Zone Sizing Information, THERMAL ZONE 4, Heating, 1799.01090, 2248.76362, 9.15802E-002, 0.11448, PHILADELPHIA INTERNATIONAL AP ANN HTG 99.6% CONDNS DB, 1/21 24:00:00, -10.80000, 1.48961E-003, 21.00000, 0.00000, 0.00000
 Zone Sizing Information, THERMAL ZONE 7, Cooling, 2725.06600, 3133.82590, 0.15839, 0.18215, PHILADELPHIA INTERNATIONAL AP ANN CLG .4% CONDNS DB=>MWB, 7/21 10:30:00, 31.13300, 1.48422E-002, 21.00000, 0.00000, 0.00000
 Zone Sizing Information, THERMAL ZONE 7, Heating, 1771.79978, 2214.74973, 9.01950E-002, 0.11274, PHILADELPHIA INTERNATIONAL AP ANN HTG 99.6% CONDNS DB, 1/21 23:15:00, -10.80000, 1.48961E-003, 21.00000, 0.00000, 0.00000
 Zone Sizing Information, THERMAL ZONE 9, Cooling, 2697.89947, 3102.58439, 0.15682, 0.18034, PHILADELPHIA INTERNATIONAL AP ANN CLG .4% CONDNS DB=>MWB, 7/21 16:30:00, 33.06000, 1.48422E-002, 21.00000, 0.00000, 0.00000
 Zone Sizing Information, THERMAL ZONE 9, Heating, 1699.71038, 2124.63798, 8.65252E-002, 0.10816, PHILADELPHIA INTERNATIONAL AP ANN HTG 99.6% CONDNS DB, 1/21 24:00:00, -10.80000, 1.48961E-003, 21.00000, 0.00000, 0.00000
 Zone Sizing Information, THERMAL ZONE 11, Cooling, 3149.75156, 3622.21430, 0.18308, 0.21054, PHILADELPHIA INTERNATIONAL AP ANN CLG .4% CONDNS DB=>MWB, 7/21 17:00:00, 32.68400, 1.48422E-002, 21.00000, 0.00000, 0.00000
 Zone Sizing Information, THERMAL ZONE 11, Heating, 1671.86402, 2089.83003, 8.51077E-002, 0.10638, PHILADELPHIA INTERNATIONAL AP ANN HTG 99.6% CONDNS DB, 1/21 24:00:00, -10.80000, 1.48961E-003, 21.00000, 0.00000, 0.00000
! <System Sizing Information>, System Name, Field Description, Value
 System Sizing Information, AIR LOOP HVAC 1, Calculated Cooling Design Air Flow Rate [m3/s], 1.79475
 System Sizing Information, AIR LOOP HVAC 1, User Cooling Design Air Flow Rate [m3/s], 1.79475
 System Sizing Information, AIR LOOP HVAC 1, Calculated Heating Design Air Flow Rate [m3/s], 1.37718
 System Sizing Information, AIR LOOP HVAC 1, User Heating Design Air Flow Rate [m3/s], 1.37718
! <Component Sizing Information>, Component Type, Component Name, Input Field Description, Value
 Component Sizing Information, AirTerminal:SingleDuct:VAV:Reheat, AIR TERMINAL SINGLE DUCT VAV REHEAT 16, Maximum Air Flow Rate [m3/s], 2.29083E-002
 Component Sizing Information, AirTerminal:SingleDuct:VAV:Reheat, AIR TERMINAL SINGLE DUCT VAV REHEAT 16, Maximum Flow per Zone Floor Area during Reheat [m3/s-m2], 1.43177E-003
 Component Sizing Information, AirTerminal:SingleDuct:VAV:Reheat, AIR TERMINAL SINGLE DUCT VAV REHEAT 16, Maximum Flow Fraction during Reheat [], 1.00000
 Component Sizing Information, AirTerminal:SingleDuct:VAV:Reheat, AIR TERMINAL SINGLE DUCT VAV REHEAT 16, Maximum Reheat Water Flow Rate [m3/s], 1.42165E-005
 Component Sizing Information, AirTerminal:SingleDuct:VAV:Reheat, AIR TERMINAL SINGLE DUCT VAV REHEAT 16, Reheat Coil Sizing Air Volume Flow Rate [m3/s], 1.92682E-002
 Component Sizing Information, Coil:Heating:Water, COIL HEATING WATER 17, Maximum Water Flow Rate [m3/s], 1.42165E-005
 Component Sizing Information, Coil:Heating:Water, COIL HEATING WATER 17, Design Coil Load [W], 654.38951
 Component Sizing Information, Coil:Heating:Water, COIL HEATING WATER 17, U-Factor Times Area Value [W/K], 16.29435
! <Water Heating Coil Capacity Information>,Component Type,Name,Nominal Total Capacity {W}
Water Heating Coil Capacity Information,Coil:Heating:Water,COIL HEATING WATER 17,696.24
 Component Sizing Information, AirTerminal:SingleDuct:VAV:Reheat, AIR TERMINAL SINGLE DUCT VAV REHEAT 9, Maximum Air Flow Rate [m3/s], 0.11448
 Component Sizing Information, AirTerminal:SingleDuct:VAV:Reheat, AIR TERMINAL SINGLE DUCT VAV REHEAT 9, Maximum Flow per Zone Floor Area during Reheat [m3/s-m2], 2.03200E-003
 Component Sizing Information, AirTerminal:SingleDuct:VAV:Reheat, AIR TERMINAL SINGLE DUCT VAV REHEAT 9, Maximum Flow Fraction during Reheat [], 0.37276
 Component Sizing Information, AirTerminal:SingleDuct:VAV:Reheat, AIR TERMINAL SINGLE DUCT VAV REHEAT 9, Maximum Reheat Water Flow Rate [m3/s], 8.44623E-005
 Component Sizing Information, AirTerminal:SingleDuct:VAV:Reheat, AIR TERMINAL SINGLE DUCT VAV REHEAT 9, Reheat Coil Sizing Air Volume Flow Rate [m3/s], 0.11448
 Component Sizing Information, Coil:Heating:Water, COIL HEATING WATER 10, Maximum Water Flow Rate [m3/s], 8.44623E-005
 Component Sizing Information, Coil:Heating:Water, COIL HEATING WATER 10, Design Coil Load [W], 3887.82366
 Component Sizing Information, Coil:Heating:Water, COIL HEATING WATER 10, U-Factor Times Area Value [W/K], 81.42455
Water Heating Coil Capacity Information,Coil:Heating:Water,COIL HEATING WATER 10,3682.81
 Component Sizing Information, AirTerminal:SingleDuct:VAV:Reheat, AIR TERMINAL SINGLE DUCT VAV REHEAT 13, Maximum Air Flow Rate [m3/s], 0.18158
 Component Sizing Information, AirTerminal:SingleDuct:VAV:Reheat, AIR TERMINAL SINGLE DUCT VAV REHEAT 13, Maximum Flow per Zone Floor Area during Reheat [m3/s-m2], 2.59405E-003
 Component Sizing Information, AirTerminal:SingleDuct:VAV:Reheat, AIR TERMINAL SINGLE DUCT VAV REHEAT 13, Maximum Flow Fraction during Reheat [], 0.30000
 Component Sizing Information, AirTerminal:SingleDuct:VAV:Reheat, AIR TERMINAL SINGLE DUCT VAV REHEAT 13, Maximum Reheat Water Flow Rate [m3/s], 7.73445E-005
 Component Sizing Information, AirTerminal:SingleDuct:VAV:Reheat, AIR TERMINAL SINGLE DUCT VAV REHEAT 13, Reheat Coil Sizing Air Volume Flow Rate [m3/s], 0.10483
 Component Sizing Information, Coil:Heating:Water, COIL HEATING WATER 14, Maximum Water Flow Rate [m3/s], 7.73445E-005
 Component Sizing Information, Coil:Heating:Water, COIL HEATING WATER 14, Design Coil Load [W], 3560.19227
 Component Sizing Information, Coil:Heating:Water, COIL HEATING WATER 14, U-Factor Times Area Value [W/K], 129.15774
Water Heating Coil Capacity Information,Coil:Heating:Water,COIL HEATING WATER 14,4748.56
 Component Sizing Information, AirTerminal:SingleDuct:VAV:Reheat, AIR TERMINAL SINGLE DUCT VAV REHEAT 2, Maximum Air Flow Rate [m3/s], 0.10816
 Component Sizing Information, AirTerminal:SingleDuct:VAV:Reheat, AIR TERMINAL SINGLE DUCT VAV REHEAT 2, Maximum Flow per Zone Floor Area during Reheat [m3/s-m2], 2.03200E-003
 Component Sizing Information, AirTerminal:SingleDuct:VAV:Reheat, AIR TERMINAL SINGLE DUCT VAV REHEAT 2, Maximum Flow Fraction during Reheat [], 0.39454
 Component Sizing Information, AirTerminal:SingleDuct:VAV:Reheat, AIR TERMINAL SINGLE DUCT VAV REHEAT 2, Maximum Reheat Water Flow Rate [m3/s], 7.98002E-005
 Component Sizing Information, AirTerminal:SingleDuct:VAV:Reheat, AIR TERMINAL SINGLE DUCT VAV REHEAT 2, Reheat Coil Sizing Air Volume Flow Rate [m3/s], 0.10816
 Component Sizing Information, Coil:Heating:Water, COIL HEATING WATER 3, Maximum Water Flow Rate [m3/s], 7.98002E-005
 Component Sizing Information, Coil:Heating:Water, COIL HEATING WATER 3, Design Coil Load [W], 3673.22635
 Component Sizing Information, Coil:Heating:Water, COIL HEATING WATER 3, U-Factor Times Area Value [W/K], 76.93014
Water Heating Coil Capacity Information,Coil:Heating:Water,COIL HEATING WATER 3,3479.53
 Component Sizing Information, AirTerminal:SingleDuct:VAV:Reheat, AIR TERMINAL SINGLE DUCT VAV REHEAT 7, Maximum Air Flow Rate [m3/s], 2.53057E-002
 Component Sizing Information, AirTerminal:SingleDuct:VAV:Reheat, AIR TERMINAL SINGLE DUCT VAV REHEAT 7, Maximum Flow per Zone Floor Area during Reheat [m3/s-m2], 1.58161E-003
 Component Sizing Information, AirTerminal:SingleDuct:VAV:Reheat, AIR TERMINAL SINGLE DUCT VAV REHEAT 7, Maximum Flow Fraction during Reheat [], 1.00000
 Component Sizing Information, AirTerminal:SingleDuct:VAV:Reheat, AIR TERMINAL SINGLE DUCT VAV REHEAT 7, Maximum Reheat Water Flow Rate [m3/s], 1.86711E-005
 Component Sizing Information, AirTerminal:SingleDuct:VAV:Reheat, AIR TERMINAL SINGLE DUCT VAV REHEAT 7, Reheat Coil Sizing Air Volume Flow Rate [m3/s], 2.53057E-002
 Component Sizing Information, Coil:Heating:Water, COIL HEATING WATER 8, Maximum Water Flow Rate [m3/s], 1.86711E-005
 Component Sizing Information, Coil:Heating:Water, COIL HEATING WATER 8, Design Coil Load [W], 859.43710
 Component Sizing Information, Coil:Heating:Water, COIL HEATING WATER 8, U-Factor Times Area Value [W/K], 17.99960
Water Heating Coil Capacity Information,Coil:Heating:Water,COIL HEATING WATER 8,814.12
 Component Sizing Information, AirTerminal:SingleDuct:VAV:Reheat, AIR TERMINAL SINGLE DUCT VAV REHEAT 8, Maximum Air Flow Rate [m3/s], 0.16147
 Component Sizing Information, AirTerminal:SingleDuct:VAV:Reheat, AIR TERMINAL SINGLE DUCT VAV REHEAT 8, Maximum Flow per Zone Floor Area during Reheat [m3/s-m2], 2.30670E-003
 Component Sizing Information, AirTerminal:SingleDuct:VAV:Reheat, AIR TERMINAL SINGLE DUCT VAV REHEAT 8, Maximum Flow Fraction during Reheat [], 0.30000
 Component Sizing Information, AirTerminal:SingleDuct:VAV:Reheat, AIR TERMINAL SINGLE DUCT VAV REHEAT 8, Maximum Reheat Water Flow Rate [m3/s], 7.73445E-005
 Component Sizing Information, AirTerminal:SingleDuct:VAV:Reheat, AIR TERMINAL SINGLE DUCT VAV REHEAT 8, Reheat Coil Sizing Air Volume Flow Rate [m3/s], 0.10483
 Component Sizing Information, Coil:Heating:Water, COIL HEATING WATER 9, Maximum Water Flow Rate [m3/s], 7.73445E-005
 Component Sizing Information, Coil:Heating:Water, COIL HEATING WATER 9, Design Coil Load [W], 3560.19227
 Component Sizing Information, Coil:Heating:Water, COIL HEATING WATER 9, U-Factor Times Area Value [W/K], 114.85042
Water Heating Coil Capacity Information,Coil:Heating:Water,COIL HEATING WATER 9,4443.66
 Component Sizing Information, AirTerminal:SingleDuct:VAV:Reheat, AIR TERMINAL SINGLE DUCT VAV REHEAT 5, Maximum Air Flow Rate [m3/s], 2.65182E-002
 Component Sizing Information, AirTerminal:SingleDuct:VAV:Reheat, AIR TERMINAL SINGLE DUCT VAV REHEAT 5, Maximum Flow per Zone Floor Area during Reheat [m3/s-m2], 1.65739E-003
 Component Sizing Information, AirTerminal:SingleDuct:VAV:Reheat, AIR TERMINAL SINGLE DUCT VAV REHEAT 5, Maximum Flow Fraction during Reheat [], 1.00000
 Component Sizing Information, AirTerminal:SingleDuct:VAV:Reheat, AIR TERMINAL SINGLE DUCT VAV REHEAT 5, Maximum Reheat Water Flow Rate [m3/s], 1.86085E-005
 Component Sizing Information, AirTerminal:SingleDuct:VAV:Reheat, AIR TERMINAL SINGLE DUCT VAV REHEAT 5, Reheat Coil Sizing Air Volume Flow Rate [m3/s], 2.52209E-002
 Component Sizing Information, Coil:Heating:Water, COIL HEATING WATER 6, Maximum Water Flow Rate [m3/s], 1.86085E-005
 Component Sizing Information, Coil:Heating:Water, COIL HEATING WATER 6, Design Coil Load [W], 856.55416
 Component Sizing Information, Coil:Heating:Water, COIL HEATING WATER 6, U-Factor Times Area Value [W/K], 18.86203
Water Heating Coil Capacity Information,Coil:Heating:Water,COIL HEATING WATER 6,839.79
 Component Sizing Information, AirTerminal:SingleDuct:VAV:Reheat, AIR TERMINAL SINGLE DUCT VAV REHEAT 12, Maximum Air Flow Rate [m3/s], 0.16263
 Component Sizing Information, AirTerminal:SingleDuct:VAV:Reheat, AIR TERMINAL SINGLE DUCT VAV REHEAT 12, Maximum Flow per Zone Floor Area during Reheat [m3/s-m2], 2.32329E-003
 Component Sizing Information, AirTerminal:SingleDuct:VAV:Reheat, AIR TERMINAL SINGLE DUCT VAV REHEAT 12, Maximum Flow Fraction during Reheat [], 0.30000
 Component Sizing Information, AirTerminal:SingleDuct:VAV:Reheat, AIR TERMINAL SINGLE DUCT VAV REHEAT 12, Maximum Reheat Water Flow Rate [m3/s], 8.31847E-005
 Component Sizing Information, AirTerminal:SingleDuct:VAV:Reheat, AIR TERMINAL SINGLE DUCT VAV REHEAT 12, Reheat Coil Sizing Air Volume Flow Rate [m3/s], 0.11274
 Component Sizing Information, Coil:Heating:Water, COIL HEATING WATER 13, Maximum Water Flow Rate [m3/s], 8.31847E-005
 Component Sizing Information, Coil:Heating:Water, COIL HEATING WATER 13, Design Coil Load [W], 3829.01800
 Component Sizing Information, Coil:Heating:Water, COIL HEATING WATER 13, U-Factor Times Area Value [W/K], 115.67667
Water Heating Coil Capacity Information,Coil:Heating:Water,COIL HEATING WATER 13,4597.42
 Component Sizing Information, AirTerminal:SingleDuct:VAV:Reheat, AIR TERMINAL SINGLE DUCT VAV REHEAT 3, Maximum Air Flow Rate [m3/s], 0.10638
 Component Sizing Information, AirTerminal:SingleDuct:VAV:Reheat, AIR TERMINAL SINGLE DUCT VAV REHEAT 3, Maximum Flow per Zone Floor Area during Reheat [m3/s-m2], 2.03200E-003
 Component Sizing Information, AirTerminal:SingleDuct:VAV:Reheat, AIR TERMINAL SINGLE DUCT VAV REHEAT 3, Maximum Flow Fraction during Reheat [], 0.40111
 Component Sizing Information, AirTerminal:SingleDuct:VAV:Reheat, AIR TERMINAL SINGLE DUCT VAV REHEAT 3, Maximum Reheat Water Flow Rate [m3/s], 7.84928E-005
 Component Sizing Information, AirTerminal:SingleDuct:VAV:Reheat, AIR TERMINAL SINGLE DUCT VAV REHEAT 3, Reheat Coil Sizing Air Volume Flow Rate [m3/s], 0.10638
 Component Sizing Information, Coil:Heating:Water, COIL HEATING WATER 4, Maximum Water Flow Rate [m3/s], 7.84928E-005
 Component Sizing Information, Coil:Heating:Water, COIL HEATING WATER 4, Design Coil Load [W], 3613.04787
 Component Sizing Information, Coil:Heating:Water, COIL HEATING WATER 4, U-Factor Times Area Value [W/K], 75.66979
Water Heating Coil Capacity Information,Coil:Heating:Water,COIL HEATING WATER 4,3422.52
 Component Sizing Information, AirTerminal:SingleDuct:VAV:Reheat, AIR TERMINAL SINGLE DUCT VAV REHEAT 14, Maximum Air Flow Rate [m3/s], 0.14388
 Component Sizing Information, AirTerminal:SingleDuct:VAV:Reheat, AIR TERMINAL SINGLE DUCT VAV REHEAT 14, Maximum Flow per Zone Floor Area during Reheat [m3/s-m2], 2.05537E-003
 Component Sizing Information, AirTerminal:SingleDuct:VAV:Reheat, AIR TERMINAL SINGLE DUCT VAV REHEAT 14, Maximum Flow Fraction during Reheat [], 0.30000
 Component Sizing Information, AirTerminal:SingleDuct:VAV:Reheat, AIR TERMINAL SINGLE DUCT VAV REHEAT 14, Maximum Reheat Water Flow Rate [m3/s], 7.90236E-005
 Component Sizing Information, AirTerminal:SingleDuct:VAV:Reheat, AIR TERMINAL SINGLE DUCT VAV REHEAT 14, Reheat Coil Sizing Air Volume Flow Rate [m3/s], 0.10710
 Component Sizing Information, Coil:Heating:Water, COIL HEATING WATER 15, Maximum Water Flow Rate [m3/s], 7.90236E-005
 Component Sizing Information, Coil:Heating:Water, COIL HEATING WATER 15, Design Coil Load [W], 3637.47816
 Component Sizing Information, Coil:Heating:Water, COIL HEATING WATER 15, U-Factor Times Area Value [W/K], 102.33687
Water Heating Coil Capacity Information,Coil:Heating:Water,COIL HEATING WATER 15,4181.96
 Component Sizing Information, AirTerminal:SingleDuct:VAV:Reheat, AIR TERMINAL SINGLE DUCT VAV REHEAT 4, Maximum Air Flow Rate [m3/s], 0.12562
 Component Sizing Information, AirTerminal:SingleDuct:VAV:Reheat, AIR TERMINAL SINGLE DUCT VAV REHEAT 4, Maximum Flow per Zone Floor Area during Reheat [m3/s-m2], 2.03200E-003
 Component Sizing Information, AirTerminal:SingleDuct:VAV:Reheat, AIR TERMINAL SINGLE DUCT VAV REHEAT 4, Maximum Flow Fraction during Reheat [], 0.33970
 Component Sizing Information, AirTerminal:SingleDuct:VAV:Reheat, AIR TERMINAL SINGLE DUCT VAV REHEAT 4, Maximum Reheat Water Flow Rate [m3/s], 7.90236E-005
 Component Sizing Information, AirTerminal:SingleDuct:VAV:Reheat, AIR TERMINAL SINGLE DUCT VAV REHEAT 4, Reheat Coil Sizing Air Volume Flow Rate [m3/s], 0.10710
 Component Sizing Information, Coil:Heating:Water, COIL HEATING WATER 5, Maximum Water Flow Rate [m3/s], 7.90236E-005
 Component Sizing Information, Coil:Heating:Water, COIL HEATING WATER 5, Design Coil Load [W], 3637.47816
 Component Sizing Information, Coil:Heating:Water, COIL HEATING WATER 5, U-Factor Times Area Value [W/K], 89.34828
Water Heating Coil Capacity Information,Coil:Heating:Water,COIL HEATING WATER 5,3835.87
 Component Sizing Information, AirTerminal:SingleDuct:VAV:Reheat, AIR TERMINAL SINGLE DUCT VAV REHEAT 6, Maximum Air Flow Rate [m3/s], 0.21231
 Component Sizing Information, AirTerminal:SingleDuct:VAV:Reheat, AIR TERMINAL SINGLE DUCT VAV REHEAT 6, Maximum Flow per Zone Floor Area during Reheat [m3/s-m2], 3.03300E-003
 Component Sizing Information, AirTerminal:SingleDuct:VAV:Reheat, AIR TERMINAL SINGLE DUCT VAV REHEAT 6, Maximum Flow Fraction during Reheat [], 0.30000
 Component Sizing Information, AirTerminal:SingleDuct:VAV:Reheat, AIR TERMINAL SINGLE DUCT VAV REHEAT 6, Maximum Reheat Water Flow Rate [m3/s], 8.44623E-005
 Component Sizing Information, AirTerminal:SingleDuct:VAV:Reheat, AIR TERMINAL SINGLE DUCT VAV REHEAT 6, Reheat Coil Sizing Air Volume Flow Rate [m3/s], 0.11448
 Component Sizing Information, Coil:Heating:Water, COIL HEATING WATER 7, Maximum Water Flow Rate [m3/s], 8.44623E-005
 Component Sizing Information, Coil:Heating:Water, COIL HEATING WATER 7, Design Coil Load [W], 3887.82366
 Component Sizing Information, Coil:Heating:Water, COIL HEATING WATER 7, U-Factor Times Area Value [W/K], 151.01299
Water Heating Coil Capacity Information,Coil:Heating:Water,COIL HEATING WATER 7,5379.83
 Component Sizing Information, AirTerminal:SingleDuct:VAV:Reheat, AIR TERMINAL SINGLE DUCT VAV REHEAT 15, Maximum Air Flow Rate [m3/s], 0.18215
 Component Sizing Information, AirTerminal:SingleDuct:VAV:Reheat, AIR TERMINAL SINGLE DUCT VAV REHEAT 15, Maximum Flow per Zone Floor Area during Reheat [m3/s-m2], 2.60220E-003
 Component Sizing Information, AirTerminal:SingleDuct:VAV:Reheat, AIR TERMINAL SINGLE DUCT VAV REHEAT 15, Maximum Flow Fraction during Reheat [], 0.30000
 Component Sizing Information, AirTerminal:SingleDuct:VAV:Reheat, AIR TERMINAL SINGLE DUCT VAV REHEAT 15, Maximum Reheat Water Flow Rate [m3/s], 8.31847E-005
 Component Sizing Information, AirTerminal:SingleDuct:VAV:Reheat, AIR TERMINAL SINGLE DUCT VAV REHEAT 15, Reheat Coil Sizing Air Volume Flow Rate [m3/s], 0.11274
 Component Sizing Information, Coil:Heating:Water, COIL HEATING WATER 16, Maximum Water Flow Rate [m3/s], 8.31847E-005
 Component Sizing Information, Coil:Heating:Water, COIL HEATING WATER 16, Design Coil Load [W], 3829.01800
 Component Sizing Information, Coil:Heating:Water, COIL HEATING WATER 16, U-Factor Times Area Value [W/K], 129.56351
Water Heating Coil Capacity Information,Coil:Heating:Water,COIL HEATING WATER 16,4912.25
 Component Sizing Information, AirTerminal:SingleDuct:VAV:Reheat, AIR TERMINAL SINGLE DUCT VAV REHEAT 10, Maximum Air Flow Rate [m3/s], 0.18034
 Component Sizing Information, AirTerminal:SingleDuct:VAV:Reheat, AIR TERMINAL SINGLE DUCT VAV REHEAT 10, Maximum Flow per Zone Floor Area during Reheat [m3/s-m2], 2.57626E-003
 Component Sizing Information, AirTerminal:SingleDuct:VAV:Reheat, AIR TERMINAL SINGLE DUCT VAV REHEAT 10, Maximum Flow Fraction during Reheat [], 0.30000
 Component Sizing Information, AirTerminal:SingleDuct:VAV:Reheat, AIR TERMINAL SINGLE DUCT VAV REHEAT 10, Maximum Reheat Water Flow Rate [m3/s], 7.98002E-005
 Component Sizing Information, AirTerminal:SingleDuct:VAV:Reheat, AIR TERMINAL SINGLE DUCT VAV REHEAT 10, Reheat Coil Sizing Air Volume Flow Rate [m3/s], 0.10816
 Component Sizing Information, Coil:Heating:Water, COIL HEATING WATER 11, Maximum Water Flow Rate [m3/s], 7.98002E-005
 Component Sizing Information, Coil:Heating:Water, COIL HEATING WATER 11, Design Coil Load [W], 3673.22635
 Component Sizing Information, Coil:Heating:Water, COIL HEATING WATER 11, U-Factor Times Area Value [W/K], 128.27188
Water Heating Coil Capacity Information,Coil:Heating:Water,COIL HEATING WATER 11,4796.89
 Component Sizing Information, AirTerminal:SingleDuct:VAV:Reheat, AIR TERMINAL SINGLE DUCT VAV REHEAT 11, Maximum Air Flow Rate [m3/s], 0.21054
 Component Sizing Information, AirTerminal:SingleDuct:VAV:Reheat, AIR TERMINAL SINGLE DUCT VAV REHEAT 11, Maximum Flow per Zone Floor Area during Reheat [m3/s-m2], 3.00774E-003
 Component Sizing Information, AirTerminal:SingleDuct:VAV:Reheat, AIR TERMINAL SINGLE DUCT VAV REHEAT 11, Maximum Flow Fraction during Reheat [], 0.30000
 Component Sizing Information, AirTerminal:SingleDuct:VAV:Reheat, AIR TERMINAL SINGLE DUCT VAV REHEAT 11, Maximum Reheat Water Flow Rate [m3/s], 7.84928E-005
 Component Sizing Information, AirTerminal:SingleDuct:VAV:Reheat, AIR TERMINAL SINGLE DUCT VAV REHEAT 11, Reheat Coil Sizing Air Volume Flow Rate [m3/s], 0.10638
 Component Sizing Information, Coil:Heating:Water, COIL HEATING WATER 12, Maximum Water Flow Rate [m3/s], 7.84928E-005
 Component Sizing Information, Coil:Heating:Water, COIL HEATING WATER 12, Design Coil Load [W], 3613.04787
 Component Sizing Information, Coil:Heating:Water, COIL HEATING WATER 12, U-Factor Times Area Value [W/K], 149.75523
Water Heating Coil Capacity Information,Coil:Heating:Water,COIL HEATING WATER 12,5170.95
 Component Sizing Information, Branch, BRANCH {354135E3-9696-4646-87BB-24514BC85C1B}, Maximum Flow Rate [m3/s], 1.79475
 Component Sizing Information, AirLoopHVAC, AIR LOOP HVAC 1, Design Supply Air Flow Rate [m3/s], 1.79475
 Component Sizing Information, Controller:OutdoorAir, CONTROLLER OUTDOOR AIR 1, Maximum Outdoor Air Flow Rate [m3/s], 1.79475
 Component Sizing Information, Controller:OutdoorAir, CONTROLLER OUTDOOR AIR 1, Minimum Outdoor Air Flow Rate [m3/s], 0.00000
 Component Sizing Information, Coil:Cooling:DX:TwoSpeed, COIL COOLING DX TWO SPEED 1, Rated High Speed Air Flow Rate [m3/s], 1.79475
 Component Sizing Information, Coil:Cooling:DX:TwoSpeed, COIL COOLING DX TWO SPEED 1, Rated High Speed Total Cooling Capacity (gross) [W], 44567.81560
 Component Sizing Information, Coil:Cooling:DX:TwoSpeed, COIL COOLING DX TWO SPEED 1, Rated High Speed Sensible Heat Ratio, 0.67608
 Component Sizing Information, Coil:Cooling:DX:TwoSpeed, COIL COOLING DX TWO SPEED 1, Rated Low Speed Air Flow Rate [m3/s], 0.59819
 Component Sizing Information, Coil:Cooling:DX:TwoSpeed, COIL COOLING DX TWO SPEED 1, Rated Low Speed Total Cooling Capacity (gross) [W], 14854.45294
! <VAV DX Cooling Coil Standard Rating Information>, DX Coil Type, DX Coil Name, Fan Type, Fan Name, Standard Net Cooling Capacity {W}, Standard Net Cooling Capacity {Btu/h}, IEER {Btu/W-h}, COP 100% Capacity {W/W}, COP 75% Capacity {W/W}, COP 50% Capacity {W/W}, COP 25% Capacity {W/W}, EER 100% Capacity {Btu/W-h}, EER 75% Capacity {Btu/W-h}, EER 50% Capacity {Btu/W-h}, EER 25% Capacity {Btu/W-h}, Supply Air Flow 100% {kg/s}, Supply Air Flow 75% {kg/s},Supply Air Flow 50% {kg/s},Supply Air Flow 25% {kg/s}
 VAV DX Cooling Coil Standard Rating Information, Coil:Cooling:DX:TwoSpeed,COIL COOLING DX TWO SPEED 1,N/A,N/A,43255.41,147593.60,25.64,4.59,6.13,8.63,12.67,15.66,20.93,29.43,43.23,2.0754,1.6596,1.1421,0.5835,
 Component Sizing Information, Coil:Heating:Water, COIL HEATING WATER 1, Maximum Water Flow Rate [m3/s], 3.33989E-004
 Component Sizing Information, Coil:Heating:Water, COIL HEATING WATER 1, Design Coil Load [W], 15373.61627
 Component Sizing Information, Coil:Heating:Water, COIL HEATING WATER 1, U-Factor Times Area Value [W/K], 210.02262
Water Heating Coil Capacity Information,Coil:Heating:Water,COIL HEATING WATER 1,11970.02
 Component Sizing Information, Fan:VariableVolume, FAN VARIABLE VOLUME 1, Maximum Flow Rate [m3/s], 1.79475
 Component Sizing Information, Controller:WaterCoil, CONTROLLER WATER COIL 1, Maximum Actuated Flow [m3/s], 3.33989E-004
 Component Sizing Information, Controller:WaterCoil, CONTROLLER WATER COIL 1, Controller Convergence Tolerance, 1.00000E-003
 Component Sizing Information, Boiler:HotWater, BOILER HOT WATER 1, Nominal Capacity [W], 62386.13317
 Component Sizing Information, Boiler:HotWater, BOILER HOT WATER 1, Design Water Flow Rate [m3/s], 1.35010E-003
 Component Sizing Information, PlantLoop, PLANT LOOP 1, Maximum Loop Flow Rate [m3/s], 1.35010E-003
 Component Sizing Information, PlantLoop, PLANT LOOP 1, Plant Loop Volume [m3], 1.51886
 Component Sizing Information, Pump:VariableSpeed, PUMP VARIABLE SPEED 1, Rated Flow Rate [m3/s], 1.35010E-003
 Component Sizing Information, Pump:VariableSpeed, PUMP VARIABLE SPEED 1, Rated Power Consumption [W], 344.93355
! <Environment>,Environment Name,Environment Type, Start Date, End Date, Start DayOfWeek, Duration {#days}, Source:Start DayOfWeek,  Use Daylight Saving, Use Holidays, Apply Weekend Holiday Rule,  Use Rain Values, Use Snow Values
! <Environment:Special Days>, Special Day Name, Special Day Type, Source, Start Date, Duration {#days}
! <Environment:Daylight Saving>, Daylight Saving Indicator, Source, Start Date, End Date
! <Environment:WarmupDays>, NumberofWarmupDays
Environment,PHILADELPHIA INTERNATIONAL AP ANN CLG .4% CONDNS WB=>MDB,SizingPeriod:DesignDay,07/21,07/21,SummerDesignDay,1,N/A,N/A,N/A,N/A,N/A,N/A
Environment:Daylight Saving,No,SizingPeriod:DesignDay
! <Environment:Design Day Data>, Max Dry-Bulb Temp {C}, Temp Range {dC}, Temp Range Ind Type, Hum Ind Value at Max Temp, Hum Ind Type,Pressure {Pa}, Wind Direction {deg CW from N}, Wind Speed {m/s}, Clearness, Rain, Snow
! <Environment:Design_Day_Misc>,DayOfYear,ASHRAE A Coeff,ASHRAE B Coeff,ASHRAE C Coeff,Solar Constant-Annual Variation,Eq of Time {minutes}, Solar Declination Angle {deg}, Solar Model
Environment:Design Day Data,31.40,9.40,DefaultMultipliers,101301,240,5.0,0.00,No ,No 
Environment:Design_Day_Misc,202,1084.4,0.2082,0.1365,1.0,-6.23,20.6,ASHRAETau
Environment:WarmupDays,  6
! <Warmup Convergence Information>,Zone Name,Environment Type/Name,Average Warmup Temperature Difference {deltaC},Std Dev Warmup Temperature Difference {deltaC},Max Temperature Pass/Fail Convergence,Min Temperature Pass/Fail Convergence,Average Warmup Load Difference {W},Std Dev Warmup Load Difference {W},Heating Load Pass/Fail Convergence,Cooling Load Pass/Fail Convergence
 Warmup Convergence Information,THERMAL ZONE 1,SizingPeriod: PHILADELPHIA INTERNATIONAL AP ANN CLG .4% CONDNS WB=>MDB,7.2822365633E-002,4.7578665292E-002,Pass,Pass,1.6139524436E-002,2.5928753212E-002,Pass,Pass
 Warmup Convergence Information,THERMAL ZONE 2,SizingPeriod: PHILADELPHIA INTERNATIONAL AP ANN CLG .4% CONDNS WB=>MDB,8.3609133668E-002,7.7632971856E-002,Pass,Pass,3.9191994172E-002,4.5947579046E-002,Pass,Pass
 Warmup Convergence Information,THERMAL ZONE 15,SizingPeriod: PHILADELPHIA INTERNATIONAL AP ANN CLG .4% CONDNS WB=>MDB,8.3884791898E-002,0.1596592569,Pass,Pass,6.3185513531E-002,5.9195359371E-002,Pass,Pass
 Warmup Convergence Information,THERMAL ZONE 3,SizingPeriod: PHILADELPHIA INTERNATIONAL AP ANN CLG .4% CONDNS WB=>MDB,5.7284309761E-002,0.1005707859,Pass,Pass,0.5240117270,2.6712918658,Pass,Pass
 Warmup Convergence Information,THERMAL ZONE 10,SizingPeriod: PHILADELPHIA INTERNATIONAL AP ANN CLG .4% CONDNS WB=>MDB,4.7638705929E-002,6.2720309462E-002,Pass,Pass,0.4318358304,2.4540493642,Pass,Pass
 Warmup Convergence Information,THERMAL ZONE 8,SizingPeriod: PHILADELPHIA INTERNATIONAL AP ANN CLG .4% CONDNS WB=>MDB,8.3806638563E-002,0.1413534186,Pass,Pass,6.1362325450E-002,3.9637173728E-002,Pass,Pass
 Warmup Convergence Information,THERMAL ZONE 6,SizingPeriod: PHILADELPHIA INTERNATIONAL AP ANN CLG .4% CONDNS WB=>MDB,6.7014951045E-002,4.6700296057E-002,Pass,Pass,1.7167772009E-002,2.5386980705E-002,Pass,Pass
 Warmup Convergence Information,THERMAL ZONE 5,SizingPeriod: PHILADELPHIA INTERNATIONAL AP ANN CLG .4% CONDNS WB=>MDB,8.3721360086E-002,0.1387687401,Pass,Pass,5.5172736981E-002,3.4771681355E-002,Pass,Pass
 Warmup Convergence Information,THERMAL ZONE 13,SizingPeriod: PHILADELPHIA INTERNATIONAL AP ANN CLG .4% CONDNS WB=>MDB,8.3630326579E-002,8.0168433575E-002,Pass,Pass,4.4847042505E-002,5.4474092035E-002,Pass,Pass
 Warmup Convergence Information,THERMAL ZONE 12,SizingPeriod: PHILADELPHIA INTERNATIONAL AP ANN CLG .4% CONDNS WB=>MDB,8.4261152338E-002,0.1737182949,Pass,Pass,1.0271299120,8.4623285428,Pass,Pass
 Warmup Convergence Information,THERMAL ZONE 14,SizingPeriod: PHILADELPHIA INTERNATIONAL AP ANN CLG .4% CONDNS WB=>MDB,8.4120084142E-002,0.1689746708,Pass,Pass,0.3814673955,1.8497196358,Pass,Pass
 Warmup Convergence Information,THERMAL ZONE 4,SizingPeriod: PHILADELPHIA INTERNATIONAL AP ANN CLG .4% CONDNS WB=>MDB,8.3985175031E-002,0.1485197052,Pass,Pass,5.6484143650E-002,4.0108521575E-002,Pass,Pass
 Warmup Convergence Information,THERMAL ZONE 7,SizingPeriod: PHILADELPHIA INTERNATIONAL AP ANN CLG .4% CONDNS WB=>MDB,8.3967963530E-002,0.1581287238,Pass,Pass,5.5932921527E-002,5.3101359969E-002,Pass,Pass
 Warmup Convergence Information,THERMAL ZONE 9,SizingPeriod: PHILADELPHIA INTERNATIONAL AP ANN CLG .4% CONDNS WB=>MDB,8.4429825663E-002,0.2231192885,Pass,Pass,0.2384038796,0.5861526970,Pass,Pass
 Warmup Convergence Information,THERMAL ZONE 11,SizingPeriod: PHILADELPHIA INTERNATIONAL AP ANN CLG .4% CONDNS WB=>MDB,8.3982483819E-002,0.1506446235,Pass,Pass,5.9849296350E-002,4.0696978753E-002,Pass,Pass
Environment,PHILADELPHIA INTERNATIONAL AP ANN HUM_N 99.6% CONDNS DP=>MCDB,SizingPeriod:DesignDay,01/21,01/21,WinterDesignDay,1,N/A,N/A,N/A,N/A,N/A,N/A
Environment:Daylight Saving,No,SizingPeriod:DesignDay
Environment:Design Day Data,-8.70,0.00,DefaultMultipliers,101301,290,5.2,0.00,No ,No 
Environment:Design_Day_Misc, 21,1229.0,0.1415,5.7310E-002,1.0,-11.15,-20.1,ASHRAEClearSky
Environment:WarmupDays,  6
 Warmup Convergence Information,THERMAL ZONE 1,SizingPeriod: PHILADELPHIA INTERNATIONAL AP ANN HUM_N 99.6% CONDNS DP=>MCDB,1.8621380772E-005,2.2059345955E-006,Pass,Pass,4.0537341237E-005,4.2120863834E-006,Pass,Pass
 Warmup Convergence Information,THERMAL ZONE 2,SizingPeriod: PHILADELPHIA INTERNATIONAL AP ANN HUM_N 99.6% CONDNS DP=>MCDB,6.1008077944E-005,7.1744963737E-006,Pass,Pass,3.7122379330E-005,3.8390447082E-006,Pass,Pass
 Warmup Convergence Information,THERMAL ZONE 15,SizingPeriod: PHILADELPHIA INTERNATIONAL AP ANN HUM_N 99.6% CONDNS DP=>MCDB,4.9079634793E-003,6.5728887620E-006,Pass,Pass,2.9506545512E-003,5.6196475902E-006,Pass,Pass
 Warmup Convergence Information,THERMAL ZONE 3,SizingPeriod: PHILADELPHIA INTERNATIONAL AP ANN HUM_N 99.6% CONDNS DP=>MCDB,5.8307355779E-005,6.6181706827E-006,Pass,Pass,3.7665409355E-005,3.8989031630E-006,Pass,Pass
 Warmup Convergence Information,THERMAL ZONE 10,SizingPeriod: PHILADELPHIA INTERNATIONAL AP ANN HUM_N 99.6% CONDNS DP=>MCDB,2.1673902368E-005,2.4172386785E-006,Pass,Pass,4.2693774794E-005,4.4420981088E-006,Pass,Pass
 Warmup Convergence Information,THERMAL ZONE 8,SizingPeriod: PHILADELPHIA INTERNATIONAL AP ANN HUM_N 99.6% CONDNS DP=>MCDB,5.8108630110E-005,7.3126242522E-006,Pass,Pass,3.5206736187E-005,3.6537598153E-006,Pass,Pass
 Warmup Convergence Information,THERMAL ZONE 6,SizingPeriod: PHILADELPHIA INTERNATIONAL AP ANN HUM_N 99.6% CONDNS DP=>MCDB,2.4548645880E-005,1.3206465426E-005,Pass,Pass,4.1811691915E-005,4.6191201441E-006,Pass,Pass
 Warmup Convergence Information,THERMAL ZONE 5,SizingPeriod: PHILADELPHIA INTERNATIONAL AP ANN HUM_N 99.6% CONDNS DP=>MCDB,1.1906437109E-003,2.7636027209E-003,Pass,Pass,5.4031403150E-004,1.3075834628E-003,Pass,Pass
 Warmup Convergence Information,THERMAL ZONE 13,SizingPeriod: PHILADELPHIA INTERNATIONAL AP ANN HUM_N 99.6% CONDNS DP=>MCDB,5.7454799584E-005,6.5523462586E-006,Pass,Pass,3.7581992154E-005,3.8884440564E-006,Pass,Pass
 Warmup Convergence Information,THERMAL ZONE 12,SizingPeriod: PHILADELPHIA INTERNATIONAL AP ANN HUM_N 99.6% CONDNS DP=>MCDB,6.2183633122E-005,7.0468934856E-006,Pass,Pass,3.6253455738E-005,3.7499705102E-006,Pass,Pass
 Warmup Convergence Information,THERMAL ZONE 14,SizingPeriod: PHILADELPHIA INTERNATIONAL AP ANN HUM_N 99.6% CONDNS DP=>MCDB,8.0168753400E-003,7.2138175071E-006,Pass,Pass,4.7524081600E-003,1.1943063475E-005,Pass,Pass
 Warmup Convergence Information,THERMAL ZONE 4,SizingPeriod: PHILADELPHIA INTERNATIONAL AP ANN HUM_N 99.6% CONDNS DP=>MCDB,6.0858610636E-005,1.5193454529E-005,Pass,Pass,3.3560360917E-005,3.5319806216E-006,Pass,Pass
 Warmup Convergence Information,THERMAL ZONE 7,SizingPeriod: PHILADELPHIA INTERNATIONAL AP ANN HUM_N 99.6% CONDNS DP=>MCDB,6.1754523599E-005,1.4398528894E-005,Pass,Pass,3.4470856167E-005,3.6452741783E-006,Pass,Pass
 Warmup Convergence Information,THERMAL ZONE 9,SizingPeriod: PHILADELPHIA INTERNATIONAL AP ANN HUM_N 99.6% CONDNS DP=>MCDB,9.3053916756E-003,6.7981712772E-006,Pass,Pass,5.4175892788E-003,1.5103890810E-005,Pass,Pass
 Warmup Convergence Information,THERMAL ZONE 11,SizingPeriod: PHILADELPHIA INTERNATIONAL AP ANN HUM_N 99.6% CONDNS DP=>MCDB,5.6175885805E-005,6.5143777973E-006,Pass,Pass,3.3381628721E-005,3.4728373464E-006,Pass,Pass
Environment,PHILADELPHIA INTERNATIONAL AP ANN HTG WIND 99.6% CONDNS WS=>MCDB,SizingPeriod:DesignDay,01/21,01/21,WinterDesignDay,1,N/A,N/A,N/A,N/A,N/A,N/A
Environment:Daylight Saving,No,SizingPeriod:DesignDay
Environment:Design Day Data,2.80,0.00,DefaultMultipliers,101301,290,12.7,0.00,No ,No 
Environment:Design_Day_Misc, 21,1229.0,0.1415,5.7310E-002,1.0,-11.15,-20.1,ASHRAEClearSky
Environment:WarmupDays,  6
 Warmup Convergence Information,THERMAL ZONE 1,SizingPeriod: PHILADELPHIA INTERNATIONAL AP ANN HTG WIND 99.6% CONDNS WS=>MCDB,1.9636849071E-003,1.1765232843E-003,Pass,Pass,4.8229386923E-003,3.1405847088E-003,Pass,Pass
 Warmup Convergence Information,THERMAL ZONE 2,SizingPeriod: PHILADELPHIA INTERNATIONAL AP ANN HTG WIND 99.6% CONDNS WS=>MCDB,6.9686542486E-003,1.1954265808E-005,Pass,Pass,5.7081583100E-003,1.7390719788E-005,Pass,Pass
 Warmup Convergence Information,THERMAL ZONE 15,SizingPeriod: PHILADELPHIA INTERNATIONAL AP ANN HTG WIND 99.6% CONDNS WS=>MCDB,5.8284557556E-003,7.4478772641E-006,Pass,Pass,5.1464659153E-003,1.4180920395E-005,Pass,Pass
 Warmup Convergence Information,THERMAL ZONE 3,SizingPeriod: PHILADELPHIA INTERNATIONAL AP ANN HTG WIND 99.6% CONDNS WS=>MCDB,3.1603430573E-005,8.9862284311E-006,Pass,Pass,2.5424589246E-005,5.9313555583E-006,Pass,Pass
 Warmup Convergence Information,THERMAL ZONE 10,SizingPeriod: PHILADELPHIA INTERNATIONAL AP ANN HTG WIND 99.6% CONDNS WS=>MCDB,1.3234169016E-005,3.9283947658E-006,Pass,Pass,2.8829715457E-005,6.8550866372E-006,Pass,Pass
 Warmup Convergence Information,THERMAL ZONE 8,SizingPeriod: PHILADELPHIA INTERNATIONAL AP ANN HTG WIND 99.6% CONDNS WS=>MCDB,2.5399351871E-005,7.5365271990E-006,Pass,Pass,2.2367138589E-005,5.3325263290E-006,Pass,Pass
 Warmup Convergence Information,THERMAL ZONE 6,SizingPeriod: PHILADELPHIA INTERNATIONAL AP ANN HTG WIND 99.6% CONDNS WS=>MCDB,2.5205542824E-003,1.3872753676E-003,Pass,Pass,3.9248208854E-003,2.7325415016E-003,Pass,Pass
 Warmup Convergence Information,THERMAL ZONE 5,SizingPeriod: PHILADELPHIA INTERNATIONAL AP ANN HTG WIND 99.6% CONDNS WS=>MCDB,2.7461292051E-005,1.3397006707E-005,Pass,Pass,2.2586378379E-005,5.4030386820E-006,Pass,Pass
 Warmup Convergence Information,THERMAL ZONE 13,SizingPeriod: PHILADELPHIA INTERNATIONAL AP ANN HTG WIND 99.6% CONDNS WS=>MCDB,6.4640235470E-003,8.4592164279E-006,Pass,Pass,5.6163261226E-003,1.6805100096E-005,Pass,Pass
 Warmup Convergence Information,THERMAL ZONE 12,SizingPeriod: PHILADELPHIA INTERNATIONAL AP ANN HTG WIND 99.6% CONDNS WS=>MCDB,2.8429209164E-005,8.2748355694E-006,Pass,Pass,2.3183122531E-005,5.4928458025E-006,Pass,Pass
 Warmup Convergence Information,THERMAL ZONE 14,SizingPeriod: PHILADELPHIA INTERNATIONAL AP ANN HTG WIND 99.6% CONDNS WS=>MCDB,2.9567354699E-005,8.5218374041E-006,Pass,Pass,2.4073540032E-005,5.6677212064E-006,Pass,Pass
 Warmup Convergence Information,THERMAL ZONE 4,SizingPeriod: PHILADELPHIA INTERNATIONAL AP ANN HTG WIND 99.6% CONDNS WS=>MCDB,7.0435261094E-003,8.1050336984E-006,Pass,Pass,5.7674040284E-003,1.7349710474E-005,Pass,Pass
 Warmup Convergence Information,THERMAL ZONE 7,SizingPeriod: PHILADELPHIA INTERNATIONAL AP ANN HTG WIND 99.6% CONDNS WS=>MCDB,3.5355671994E-003,3.1851484596E-003,Pass,Pass,2.2282473933E-003,2.2707150827E-003,Pass,Pass
 Warmup Convergence Information,THERMAL ZONE 9,SizingPeriod: PHILADELPHIA INTERNATIONAL AP ANN HTG WIND 99.6% CONDNS WS=>MCDB,2.7137265058E-005,7.9924691220E-006,Pass,Pass,2.1833142735E-005,5.2115826204E-006,Pass,Pass
 Warmup Convergence Information,THERMAL ZONE 11,SizingPeriod: PHILADELPHIA INTERNATIONAL AP ANN HTG WIND 99.6% CONDNS WS=>MCDB,6.4599575146E-003,7.6138191505E-006,Pass,Pass,5.6136706082E-003,1.6576890226E-005,Pass,Pass
Environment,PHILADELPHIA INTERNATIONAL AP ANN CLG 1% CONDNS DP=>MDB,SizingPeriod:DesignDay,07/21,07/21,SummerDesignDay,1,N/A,N/A,N/A,N/A,N/A,N/A
Environment:Daylight Saving,No,SizingPeriod:DesignDay
Environment:Design Day Data,27.40,9.40,DefaultMultipliers,101301,240,5.0,0.00,No ,No 
Environment:Design_Day_Misc,202,1084.4,0.2082,0.1365,1.0,-6.23,20.6,ASHRAETau
Environment:WarmupDays,  6
 Warmup Convergence Information,THERMAL ZONE 1,SizingPeriod: PHILADELPHIA INTERNATIONAL AP ANN CLG 1% CONDNS DP=>MDB,8.3341630094E-002,4.5055995018E-002,Pass,Pass,1.2483639561E-002,1.5349232573E-002,Pass,Pass
 Warmup Convergence Information,THERMAL ZONE 2,SizingPeriod: PHILADELPHIA INTERNATIONAL AP ANN CLG 1% CONDNS DP=>MDB,7.5163648902E-002,8.3523978661E-002,Pass,Pass,0.1917304535,0.7700053807,Pass,Pass
 Warmup Convergence Information,THERMAL ZONE 15,SizingPeriod: PHILADELPHIA INTERNATIONAL AP ANN CLG 1% CONDNS DP=>MDB,8.4214151347E-002,0.1542960366,Pass,Pass,0.1813760929,0.5303972416,Pass,Pass
 Warmup Convergence Information,THERMAL ZONE 3,SizingPeriod: PHILADELPHIA INTERNATIONAL AP ANN CLG 1% CONDNS DP=>MDB,3.6889986263E-002,7.2870960416E-002,Pass,Pass,0.2995719153,1.1815552460,Pass,Pass
 Warmup Convergence Information,THERMAL ZONE 10,SizingPeriod: PHILADELPHIA INTERNATIONAL AP ANN CLG 1% CONDNS DP=>MDB,3.7729223189E-002,5.6008384545E-002,Pass,Pass,0.5643432871,3.0449245754,Pass,Pass
 Warmup Convergence Information,THERMAL ZONE 8,SizingPeriod: PHILADELPHIA INTERNATIONAL AP ANN CLG 1% CONDNS DP=>MDB,8.4035010701E-002,0.1471191917,Pass,Pass,1.5737362299,13.4566689192,Pass,Pass
 Warmup Convergence Information,THERMAL ZONE 6,SizingPeriod: PHILADELPHIA INTERNATIONAL AP ANN CLG 1% CONDNS DP=>MDB,8.2641806127E-002,4.0767073790E-002,Pass,Pass,9.5101983184E-003,9.1141194125E-003,Pass,Pass
 Warmup Convergence Information,THERMAL ZONE 5,SizingPeriod: PHILADELPHIA INTERNATIONAL AP ANN CLG 1% CONDNS DP=>MDB,8.4200085585E-002,0.1439426246,Pass,Pass,0.1884911025,0.4826900132,Pass,Pass
 Warmup Convergence Information,THERMAL ZONE 13,SizingPeriod: PHILADELPHIA INTERNATIONAL AP ANN CLG 1% CONDNS DP=>MDB,7.5573202656E-002,8.5533176807E-002,Pass,Pass,0.2033790252,0.7254010957,Pass,Pass
 Warmup Convergence Information,THERMAL ZONE 12,SizingPeriod: PHILADELPHIA INTERNATIONAL AP ANN CLG 1% CONDNS DP=>MDB,8.4380255374E-002,0.1735189950,Pass,Pass,0.8571322123,6.8011967723,Pass,Pass
 Warmup Convergence Information,THERMAL ZONE 14,SizingPeriod: PHILADELPHIA INTERNATIONAL AP ANN CLG 1% CONDNS DP=>MDB,8.4326355736E-002,0.1639403399,Pass,Pass,0.4223432162,2.4443576850,Pass,Pass
 Warmup Convergence Information,THERMAL ZONE 4,SizingPeriod: PHILADELPHIA INTERNATIONAL AP ANN CLG 1% CONDNS DP=>MDB,8.4148353044E-002,0.1639783468,Pass,Pass,0.2304361296,0.8148808510,Pass,Pass
 Warmup Convergence Information,THERMAL ZONE 7,SizingPeriod: PHILADELPHIA INTERNATIONAL AP ANN CLG 1% CONDNS DP=>MDB,8.3934112187E-002,0.1513070166,Pass,Pass,0.4492000237,3.1571427414,Pass,Pass
 Warmup Convergence Information,THERMAL ZONE 9,SizingPeriod: PHILADELPHIA INTERNATIONAL AP ANN CLG 1% CONDNS DP=>MDB,8.4531238993E-002,0.2252518674,Pass,Pass,0.5260960276,2.8422167162,Pass,Pass
 Warmup Convergence Information,THERMAL ZONE 11,SizingPeriod: PHILADELPHIA INTERNATIONAL AP ANN CLG 1% CONDNS DP=>MDB,8.4267367031E-002,0.1642035272,Pass,Pass,1.4093824076,12.3269857766,Pass,Pass
Environment,PHILADELPHIA INTERNATIONAL AP ANN HUM_N 99% CONDNS DP=>MCDB,SizingPeriod:DesignDay,01/21,01/21,WinterDesignDay,1,N/A,N/A,N/A,N/A,N/A,N/A
Environment:Daylight Saving,No,SizingPeriod:DesignDay
Environment:Design Day Data,-6.70,0.00,DefaultMultipliers,101301,290,5.2,0.00,No ,No 
Environment:Design_Day_Misc, 21,1229.0,0.1415,5.7310E-002,1.0,-11.15,-20.1,ASHRAEClearSky
Environment:WarmupDays,  6
 Warmup Convergence Information,THERMAL ZONE 1,SizingPeriod: PHILADELPHIA INTERNATIONAL AP ANN HUM_N 99% CONDNS DP=>MCDB,1.1583246076E-003,1.4956963978E-003,Pass,Pass,1.3817475666E-003,2.2152016488E-003,Pass,Pass
 Warmup Convergence Information,THERMAL ZONE 2,SizingPeriod: PHILADELPHIA INTERNATIONAL AP ANN HUM_N 99% CONDNS DP=>MCDB,3.9876694487E-005,2.3749271493E-005,Pass,Pass,2.4202206949E-005,1.3352498330E-005,Pass,Pass
 Warmup Convergence Information,THERMAL ZONE 15,SizingPeriod: PHILADELPHIA INTERNATIONAL AP ANN HUM_N 99% CONDNS DP=>MCDB,4.8210446089E-003,1.2730861482E-003,Pass,Pass,2.9605358679E-003,8.6962492765E-004,Pass,Pass
 Warmup Convergence Information,THERMAL ZONE 3,SizingPeriod: PHILADELPHIA INTERNATIONAL AP ANN HUM_N 99% CONDNS DP=>MCDB,3.6995998364E-005,2.1368864622E-005,Pass,Pass,2.4368099938E-005,1.3429916648E-005,Pass,Pass
 Warmup Convergence Information,THERMAL ZONE 10,SizingPeriod: PHILADELPHIA INTERNATIONAL AP ANN HUM_N 99% CONDNS DP=>MCDB,1.3600832434E-005,8.2984008485E-006,Pass,Pass,2.7169997570E-005,1.5012385929E-005,Pass,Pass
 Warmup Convergence Information,THERMAL ZONE 8,SizingPeriod: PHILADELPHIA INTERNATIONAL AP ANN HUM_N 99% CONDNS DP=>MCDB,6.1756320573E-003,4.0011404673E-003,Pass,Pass,3.3361765641E-003,2.4382556597E-003,Pass,Pass
 Warmup Convergence Information,THERMAL ZONE 6,SizingPeriod: PHILADELPHIA INTERNATIONAL AP ANN HUM_N 99% CONDNS DP=>MCDB,1.9012766754E-005,1.3823221653E-005,Pass,Pass,2.6869031249E-005,1.4828292492E-005,Pass,Pass
 Warmup Convergence Information,THERMAL ZONE 5,SizingPeriod: PHILADELPHIA INTERNATIONAL AP ANN HUM_N 99% CONDNS DP=>MCDB,3.8925295551E-005,2.3303114487E-005,Pass,Pass,2.2382681690E-005,1.2330468364E-005,Pass,Pass
 Warmup Convergence Information,THERMAL ZONE 13,SizingPeriod: PHILADELPHIA INTERNATIONAL AP ANN HUM_N 99% CONDNS DP=>MCDB,3.9478105394E-005,2.2954244440E-005,Pass,Pass,2.4483204460E-005,1.3463314997E-005,Pass,Pass
 Warmup Convergence Information,THERMAL ZONE 12,SizingPeriod: PHILADELPHIA INTERNATIONAL AP ANN HUM_N 99% CONDNS DP=>MCDB,3.7723730811E-005,2.1927976916E-005,Pass,Pass,2.2824939360E-005,1.2570388107E-005,Pass,Pass
 Warmup Convergence Information,THERMAL ZONE 14,SizingPeriod: PHILADELPHIA INTERNATIONAL AP ANN HUM_N 99% CONDNS DP=>MCDB,8.3614007204E-003,6.5096320062E-005,Pass,Pass,5.1922542779E-003,2.1177356640E-005,Pass,Pass
 Warmup Convergence Information,THERMAL ZONE 4,SizingPeriod: PHILADELPHIA INTERNATIONAL AP ANN HUM_N 99% CONDNS DP=>MCDB,2.4514462895E-003,3.2716584198E-003,Pass,Pass,1.1358306941E-003,1.6281031982E-003,Pass,Pass
 Warmup Convergence Information,THERMAL ZONE 7,SizingPeriod: PHILADELPHIA INTERNATIONAL AP ANN HUM_N 99% CONDNS DP=>MCDB,3.7248093257E-005,2.1520837859E-005,Pass,Pass,2.1772763002E-005,1.2013028977E-005,Pass,Pass
 Warmup Convergence Information,THERMAL ZONE 9,SizingPeriod: PHILADELPHIA INTERNATIONAL AP ANN HUM_N 99% CONDNS DP=>MCDB,3.6001317874E-005,2.1180592884E-005,Pass,Pass,2.1633454559E-005,1.1938389830E-005,Pass,Pass
 Warmup Convergence Information,THERMAL ZONE 11,SizingPeriod: PHILADELPHIA INTERNATIONAL AP ANN HUM_N 99% CONDNS DP=>MCDB,4.3457555630E-003,3.4162766368E-003,Pass,Pass,2.1893625603E-003,1.9612142986E-003,Pass,Pass
Environment,PHILADELPHIA INTERNATIONAL AP ANN CLG 1% CONDNS ENTH=>MDB,SizingPeriod:DesignDay,07/21,07/21,SummerDesignDay,1,N/A,N/A,N/A,N/A,N/A,N/A
Environment:Daylight Saving,No,SizingPeriod:DesignDay
Environment:Design Day Data,30.00,9.40,DefaultMultipliers,101301,240,5.0,0.00,No ,No 
Environment:Design_Day_Misc,202,1084.4,0.2082,0.1365,1.0,-6.23,20.6,ASHRAETau
Environment:WarmupDays,  6
 Warmup Convergence Information,THERMAL ZONE 1,SizingPeriod: PHILADELPHIA INTERNATIONAL AP ANN CLG 1% CONDNS ENTH=>MDB,7.7071175477E-002,4.6013972715E-002,Pass,Pass,1.4252199056E-002,2.3216749339E-002,Pass,Pass
 Warmup Convergence Information,THERMAL ZONE 2,SizingPeriod: PHILADELPHIA INTERNATIONAL AP ANN CLG 1% CONDNS ENTH=>MDB,8.3630884506E-002,8.1398097469E-002,Pass,Pass,5.2395980877E-002,6.5633510192E-002,Pass,Pass
 Warmup Convergence Information,THERMAL ZONE 15,SizingPeriod: PHILADELPHIA INTERNATIONAL AP ANN CLG 1% CONDNS ENTH=>MDB,8.3937794473E-002,0.1593710450,Pass,Pass,9.3612136396E-002,0.1299535883,Pass,Pass
 Warmup Convergence Information,THERMAL ZONE 3,SizingPeriod: PHILADELPHIA INTERNATIONAL AP ANN CLG 1% CONDNS ENTH=>MDB,5.0673764248E-002,9.4811959327E-002,Pass,Pass,0.1977372903,0.5113485366,Pass,Pass
 Warmup Convergence Information,THERMAL ZONE 10,SizingPeriod: PHILADELPHIA INTERNATIONAL AP ANN CLG 1% CONDNS ENTH=>MDB,4.4492785683E-002,6.1550398094E-002,Pass,Pass,0.2261700962,0.7662785810,Pass,Pass
 Warmup Convergence Information,THERMAL ZONE 8,SizingPeriod: PHILADELPHIA INTERNATIONAL AP ANN CLG 1% CONDNS ENTH=>MDB,8.3959099876E-002,0.1460675209,Pass,Pass,7.9414336062E-002,6.2552104742E-002,Pass,Pass
 Warmup Convergence Information,THERMAL ZONE 6,SizingPeriod: PHILADELPHIA INTERNATIONAL AP ANN CLG 1% CONDNS ENTH=>MDB,7.2054472094E-002,4.5333310685E-002,Pass,Pass,1.5313789263E-002,2.1684141561E-002,Pass,Pass
 Warmup Convergence Information,THERMAL ZONE 5,SizingPeriod: PHILADELPHIA INTERNATIONAL AP ANN CLG 1% CONDNS ENTH=>MDB,8.3825844595E-002,0.1439704771,Pass,Pass,6.7603819803E-002,4.7045493797E-002,Pass,Pass
 Warmup Convergence Information,THERMAL ZONE 13,SizingPeriod: PHILADELPHIA INTERNATIONAL AP ANN CLG 1% CONDNS ENTH=>MDB,8.3551183262E-002,8.4350465857E-002,Pass,Pass,7.0690357844E-002,0.1076088060,Pass,Pass
 Warmup Convergence Information,THERMAL ZONE 12,SizingPeriod: PHILADELPHIA INTERNATIONAL AP ANN CLG 1% CONDNS ENTH=>MDB,8.4238163927E-002,0.1735635502,Pass,Pass,0.1933414613,0.4879241075,Pass,Pass
 Warmup Convergence Information,THERMAL ZONE 14,SizingPeriod: PHILADELPHIA INTERNATIONAL AP ANN CLG 1% CONDNS ENTH=>MDB,8.4198842873E-002,0.1663787973,Pass,Pass,0.2553547785,0.7465640583,Pass,Pass
 Warmup Convergence Information,THERMAL ZONE 4,SizingPeriod: PHILADELPHIA INTERNATIONAL AP ANN CLG 1% CONDNS ENTH=>MDB,8.3948251088E-002,0.1537223950,Pass,Pass,6.5113711710E-002,4.1522590843E-002,Pass,Pass
 Warmup Convergence Information,THERMAL ZONE 7,SizingPeriod: PHILADELPHIA INTERNATIONAL AP ANN CLG 1% CONDNS ENTH=>MDB,8.3898731206E-002,0.1567598198,Pass,Pass,6.9403534443E-002,6.8325447771E-002,Pass,Pass
 Warmup Convergence Information,THERMAL ZONE 9,SizingPeriod: PHILADELPHIA INTERNATIONAL AP ANN CLG 1% CONDNS ENTH=>MDB,8.4345192470E-002,0.2227606149,Pass,Pass,0.2540222452,0.6202622475,Pass,Pass
 Warmup Convergence Information,THERMAL ZONE 11,SizingPeriod: PHILADELPHIA INTERNATIONAL AP ANN CLG 1% CONDNS ENTH=>MDB,8.3965785148E-002,0.1557839626,Pass,Pass,6.9132042883E-002,4.5622254435E-002,Pass,Pass
Environment,PHILADELPHIA INTERNATIONAL AP ANN HTG 99.6% CONDNS DB,SizingPeriod:DesignDay,01/21,01/21,WinterDesignDay,1,N/A,N/A,N/A,N/A,N/A,N/A
Environment:Daylight Saving,No,SizingPeriod:DesignDay
Environment:Design Day Data,-10.80,0.00,DefaultMultipliers,101301,290,5.2,0.00,No ,No 
Environment:Design_Day_Misc, 21,1229.0,0.1415,5.7310E-002,1.0,-11.15,-20.1,ASHRAEClearSky
Environment:WarmupDays,  6
 Warmup Convergence Information,THERMAL ZONE 1,SizingPeriod: PHILADELPHIA INTERNATIONAL AP ANN HTG 99.6% CONDNS DB,2.3429189229E-005,1.3535703028E-005,Pass,Pass,1.7645075654E-005,7.3744983795E-006,Pass,Pass
 Warmup Convergence Information,THERMAL ZONE 2,SizingPeriod: PHILADELPHIA INTERNATIONAL AP ANN HTG 99.6% CONDNS DB,2.7239070076E-005,1.1693644426E-005,Pass,Pass,1.5779880236E-005,6.3160573692E-006,Pass,Pass
 Warmup Convergence Information,THERMAL ZONE 15,SizingPeriod: PHILADELPHIA INTERNATIONAL AP ANN HTG 99.6% CONDNS DB,3.4064503478E-003,4.1135897956E-003,Pass,Pass,1.6918902641E-003,2.1373594181E-003,Pass,Pass
 Warmup Convergence Information,THERMAL ZONE 3,SizingPeriod: PHILADELPHIA INTERNATIONAL AP ANN HTG 99.6% CONDNS DB,2.5530579374E-005,1.1105958649E-005,Pass,Pass,1.6176067152E-005,6.4584115004E-006,Pass,Pass
 Warmup Convergence Information,THERMAL ZONE 10,SizingPeriod: PHILADELPHIA INTERNATIONAL AP ANN HTG 99.6% CONDNS DB,9.1128920082E-006,3.9901925240E-006,Pass,Pass,1.8629438119E-005,7.4652447268E-006,Pass,Pass
 Warmup Convergence Information,THERMAL ZONE 8,SizingPeriod: PHILADELPHIA INTERNATIONAL AP ANN HTG 99.6% CONDNS DB,7.6202793651E-003,5.5788139456E-005,Pass,Pass,4.3787599756E-003,1.1837407667E-005,Pass,Pass
 Warmup Convergence Information,THERMAL ZONE 6,SizingPeriod: PHILADELPHIA INTERNATIONAL AP ANN HTG 99.6% CONDNS DB,1.0242994776E-005,5.4244132159E-006,Pass,Pass,1.8058604684E-005,7.2516348865E-006,Pass,Pass
 Warmup Convergence Information,THERMAL ZONE 5,SizingPeriod: PHILADELPHIA INTERNATIONAL AP ANN HTG 99.6% CONDNS DB,4.3855988960E-004,1.8132021927E-003,Pass,Pass,2.0452040406E-004,8.0686866885E-004,Pass,Pass
 Warmup Convergence Information,THERMAL ZONE 13,SizingPeriod: PHILADELPHIA INTERNATIONAL AP ANN HTG 99.6% CONDNS DB,2.7513791643E-005,1.7542183724E-005,Pass,Pass,1.6087239926E-005,6.5583422284E-006,Pass,Pass
 Warmup Convergence Information,THERMAL ZONE 12,SizingPeriod: PHILADELPHIA INTERNATIONAL AP ANN HTG 99.6% CONDNS DB,2.8459767998E-005,1.2700515517E-005,Pass,Pass,1.5896162380E-005,6.3422273289E-006,Pass,Pass
 Warmup Convergence Information,THERMAL ZONE 14,SizingPeriod: PHILADELPHIA INTERNATIONAL AP ANN HTG 99.6% CONDNS DB,2.8215503444E-005,1.2251969163E-005,Pass,Pass,1.6187168572E-005,6.4574287448E-006,Pass,Pass
 Warmup Convergence Information,THERMAL ZONE 4,SizingPeriod: PHILADELPHIA INTERNATIONAL AP ANN HTG 99.6% CONDNS DB,1.1548520830E-002,5.9587051212E-005,Pass,Pass,5.9947819245E-003,1.9182459841E-005,Pass,Pass
 Warmup Convergence Information,THERMAL ZONE 7,SizingPeriod: PHILADELPHIA INTERNATIONAL AP ANN HTG 99.6% CONDNS DB,2.8486251792E-005,1.3108748584E-005,Pass,Pass,1.5150665456E-005,6.0559515261E-006,Pass,Pass
 Warmup Convergence Information,THERMAL ZONE 9,SizingPeriod: PHILADELPHIA INTERNATIONAL AP ANN HTG 99.6% CONDNS DB,2.7348442842E-005,1.1946864617E-005,Pass,Pass,1.5122850659E-005,6.0547851643E-006,Pass,Pass
 Warmup Convergence Information,THERMAL ZONE 11,SizingPeriod: PHILADELPHIA INTERNATIONAL AP ANN HTG 99.6% CONDNS DB,5.9724487055E-003,3.5628929011E-005,Pass,Pass,3.3372137175E-003,8.1737002693E-006,Pass,Pass
Environment,PHILADELPHIA INTERNATIONAL AP ANN HTG WIND 99% CONDNS WS=>MCDB,SizingPeriod:DesignDay,01/21,01/21,WinterDesignDay,1,N/A,N/A,N/A,N/A,N/A,N/A
Environment:Daylight Saving,No,SizingPeriod:DesignDay
Environment:Design Day Data,1.10,0.00,DefaultMultipliers,101301,290,11.6,0.00,No ,No 
Environment:Design_Day_Misc, 21,1229.0,0.1415,5.7310E-002,1.0,-11.15,-20.1,ASHRAEClearSky
Environment:WarmupDays,  6
 Warmup Convergence Information,THERMAL ZONE 1,SizingPeriod: PHILADELPHIA INTERNATIONAL AP ANN HTG WIND 99% CONDNS WS=>MCDB,1.4233899636E-003,7.7003864383E-004,Pass,Pass,2.3911042483E-003,1.8724541886E-003,Pass,Pass
 Warmup Convergence Information,THERMAL ZONE 2,SizingPeriod: PHILADELPHIA INTERNATIONAL AP ANN HTG WIND 99% CONDNS WS=>MCDB,5.1079601768E-003,2.8730723091E-003,Pass,Pass,3.5572490567E-003,2.1810293560E-003,Pass,Pass
 Warmup Convergence Information,THERMAL ZONE 15,SizingPeriod: PHILADELPHIA INTERNATIONAL AP ANN HTG WIND 99% CONDNS WS=>MCDB,5.6172160309E-003,2.0173964221E-003,Pass,Pass,3.8956518966E-003,1.6986200885E-003,Pass,Pass
 Warmup Convergence Information,THERMAL ZONE 3,SizingPeriod: PHILADELPHIA INTERNATIONAL AP ANN HTG WIND 99% CONDNS WS=>MCDB,1.3260891713E-005,9.7810927873E-006,Pass,Pass,8.4490791726E-006,6.3827424135E-006,Pass,Pass
 Warmup Convergence Information,THERMAL ZONE 10,SizingPeriod: PHILADELPHIA INTERNATIONAL AP ANN HTG WIND 99% CONDNS WS=>MCDB,1.5486207885E-005,1.2445715562E-005,Pass,Pass,9.6614596448E-006,7.3240790382E-006,Pass,Pass
 Warmup Convergence Information,THERMAL ZONE 8,SizingPeriod: PHILADELPHIA INTERNATIONAL AP ANN HTG WIND 99% CONDNS WS=>MCDB,4.5922093673E-003,3.0587460153E-005,Pass,Pass,3.7914312725E-003,1.1695631369E-005,Pass,Pass
 Warmup Convergence Information,THERMAL ZONE 6,SizingPeriod: PHILADELPHIA INTERNATIONAL AP ANN HTG WIND 99% CONDNS WS=>MCDB,1.1472887653E-003,1.5669516133E-003,Pass,Pass,1.5566769884E-003,2.4963236925E-003,Pass,Pass
 Warmup Convergence Information,THERMAL ZONE 5,SizingPeriod: PHILADELPHIA INTERNATIONAL AP ANN HTG WIND 99% CONDNS WS=>MCDB,4.3270297465E-003,2.5471701493E-005,Pass,Pass,3.3569756275E-003,1.0932378952E-005,Pass,Pass
 Warmup Convergence Information,THERMAL ZONE 13,SizingPeriod: PHILADELPHIA INTERNATIONAL AP ANN HTG WIND 99% CONDNS WS=>MCDB,6.0683828249E-003,2.9073101679E-005,Pass,Pass,4.9241210266E-003,1.6445025901E-005,Pass,Pass
 Warmup Convergence Information,THERMAL ZONE 12,SizingPeriod: PHILADELPHIA INTERNATIONAL AP ANN HTG WIND 99% CONDNS WS=>MCDB,6.8510407516E-003,4.9693764435E-005,Pass,Pass,5.2909035242E-003,1.7110641871E-005,Pass,Pass
 Warmup Convergence Information,THERMAL ZONE 14,SizingPeriod: PHILADELPHIA INTERNATIONAL AP ANN HTG WIND 99% CONDNS WS=>MCDB,1.7237159564E-003,2.5382985575E-003,Pass,Pass,9.5368753613E-004,1.5718014273E-003,Pass,Pass
 Warmup Convergence Information,THERMAL ZONE 4,SizingPeriod: PHILADELPHIA INTERNATIONAL AP ANN HTG WIND 99% CONDNS WS=>MCDB,6.5242196418E-003,1.7410213352E-003,Pass,Pass,4.7749227683E-003,1.4204766068E-003,Pass,Pass
 Warmup Convergence Information,THERMAL ZONE 7,SizingPeriod: PHILADELPHIA INTERNATIONAL AP ANN HTG WIND 99% CONDNS WS=>MCDB,1.4575420117E-005,1.0702104010E-005,Pass,Pass,7.3429970136E-006,5.5347622035E-006,Pass,Pass
 Warmup Convergence Information,THERMAL ZONE 9,SizingPeriod: PHILADELPHIA INTERNATIONAL AP ANN HTG WIND 99% CONDNS WS=>MCDB,5.1019960109E-003,1.4339035187E-003,Pass,Pass,3.7096004167E-003,1.0976885780E-003,Pass,Pass
 Warmup Convergence Information,THERMAL ZONE 11,SizingPeriod: PHILADELPHIA INTERNATIONAL AP ANN HTG WIND 99% CONDNS WS=>MCDB,6.2859775369E-003,3.7129506520E-005,Pass,Pass,5.1008959005E-003,1.5902667361E-005,Pass,Pass
Environment,PHILADELPHIA INTERNATIONAL AP ANN CLG 1% CONDNS DB=>MWB,SizingPeriod:DesignDay,07/21,07/21,SummerDesignDay,1,N/A,N/A,N/A,N/A,N/A,N/A
Environment:Daylight Saving,No,SizingPeriod:DesignDay
Environment:Design Day Data,32.60,9.40,DefaultMultipliers,101301,240,5.0,0.00,No ,No 
Environment:Design_Day_Misc,202,1084.4,0.2082,0.1365,1.0,-6.23,20.6,ASHRAETau
Environment:WarmupDays,  6
 Warmup Convergence Information,THERMAL ZONE 1,SizingPeriod: PHILADELPHIA INTERNATIONAL AP ANN CLG 1% CONDNS DB=>MWB,6.9376546743E-002,4.7716409614E-002,Pass,Pass,1.7491644755E-002,2.6573442661E-002,Pass,Pass
 Warmup Convergence Information,THERMAL ZONE 2,SizingPeriod: PHILADELPHIA INTERNATIONAL AP ANN CLG 1% CONDNS DB=>MWB,8.3469806119E-002,7.4518710263E-002,Pass,Pass,3.3661428352E-002,3.8667275343E-002,Pass,Pass
 Warmup Convergence Information,THERMAL ZONE 15,SizingPeriod: PHILADELPHIA INTERNATIONAL AP ANN CLG 1% CONDNS DB=>MWB,8.3817837420E-002,0.1602328462,Pass,Pass,5.5434627977E-002,5.1004620315E-002,Pass,Pass
 Warmup Convergence Information,THERMAL ZONE 3,SizingPeriod: PHILADELPHIA INTERNATIONAL AP ANN CLG 1% CONDNS DB=>MWB,6.2832997357E-002,0.1055911835,Pass,Pass,0.2255809636,0.6840313157,Pass,Pass
 Warmup Convergence Information,THERMAL ZONE 10,SizingPeriod: PHILADELPHIA INTERNATIONAL AP ANN CLG 1% CONDNS DB=>MWB,5.0379355056E-002,6.4451156317E-002,Pass,Pass,0.2443911756,0.9680861421,Pass,Pass
 Warmup Convergence Information,THERMAL ZONE 8,SizingPeriod: PHILADELPHIA INTERNATIONAL AP ANN CLG 1% CONDNS DB=>MWB,8.3890454321E-002,0.1433967485,Pass,Pass,5.4013431065E-002,3.3961932972E-002,Pass,Pass
 Warmup Convergence Information,THERMAL ZONE 6,SizingPeriod: PHILADELPHIA INTERNATIONAL AP ANN CLG 1% CONDNS DB=>MWB,6.2951231779E-002,4.6595279072E-002,Pass,Pass,1.8440809302E-002,2.5402024594E-002,Pass,Pass
 Warmup Convergence Information,THERMAL ZONE 5,SizingPeriod: PHILADELPHIA INTERNATIONAL AP ANN CLG 1% CONDNS DB=>MWB,8.3690086986E-002,0.1398328549,Pass,Pass,4.8884482578E-002,3.1363641455E-002,Pass,Pass
 Warmup Convergence Information,THERMAL ZONE 13,SizingPeriod: PHILADELPHIA INTERNATIONAL AP ANN CLG 1% CONDNS DB=>MWB,8.3538343984E-002,7.7253814204E-002,Pass,Pass,3.7709524725E-002,4.3923208276E-002,Pass,Pass
 Warmup Convergence Information,THERMAL ZONE 12,SizingPeriod: PHILADELPHIA INTERNATIONAL AP ANN CLG 1% CONDNS DB=>MWB,8.4080200491E-002,0.1778547854,Pass,Pass,0.2612163075,1.0400062233,Pass,Pass
 Warmup Convergence Information,THERMAL ZONE 14,SizingPeriod: PHILADELPHIA INTERNATIONAL AP ANN CLG 1% CONDNS DB=>MWB,8.4044827257E-002,0.1687496919,Pass,Pass,0.2209506587,0.5132367417,Pass,Pass
 Warmup Convergence Information,THERMAL ZONE 4,SizingPeriod: PHILADELPHIA INTERNATIONAL AP ANN CLG 1% CONDNS DB=>MWB,8.3771016850E-002,0.1437455074,Pass,Pass,5.1772326160E-002,3.7144611855E-002,Pass,Pass
 Warmup Convergence Information,THERMAL ZONE 7,SizingPeriod: PHILADELPHIA INTERNATIONAL AP ANN CLG 1% CONDNS DB=>MWB,8.3766629513E-002,0.1578201948,Pass,Pass,4.9920852047E-002,4.6394081727E-002,Pass,Pass
 Warmup Convergence Information,THERMAL ZONE 9,SizingPeriod: PHILADELPHIA INTERNATIONAL AP ANN CLG 1% CONDNS DB=>MWB,8.4370689614E-002,0.2201841583,Pass,Pass,0.2088923198,0.3608848840,Pass,Pass
 Warmup Convergence Information,THERMAL ZONE 11,SizingPeriod: PHILADELPHIA INTERNATIONAL AP ANN CLG 1% CONDNS DB=>MWB,8.4031433219E-002,0.1471269294,Pass,Pass,5.4572383829E-002,3.8445243653E-002,Pass,Pass
Environment,PHILADELPHIA INTERNATIONAL AP ANN CLG .4% CONDNS DP=>MDB,SizingPeriod:DesignDay,07/21,07/21,SummerDesignDay,1,N/A,N/A,N/A,N/A,N/A,N/A
Environment:Daylight Saving,No,SizingPeriod:DesignDay
Environment:Design Day Data,28.10,9.40,DefaultMultipliers,101301,240,5.0,0.00,No ,No 
Environment:Design_Day_Misc,202,1084.4,0.2082,0.1365,1.0,-6.23,20.6,ASHRAETau
Environment:WarmupDays,  6
 Warmup Convergence Information,THERMAL ZONE 1,SizingPeriod: PHILADELPHIA INTERNATIONAL AP ANN CLG .4% CONDNS DP=>MDB,8.3330971530E-002,4.4080368107E-002,Pass,Pass,1.0751043590E-002,1.3886982632E-002,Pass,Pass
 Warmup Convergence Information,THERMAL ZONE 2,SizingPeriod: PHILADELPHIA INTERNATIONAL AP ANN CLG .4% CONDNS DP=>MDB,7.9737713706E-002,8.3663949736E-002,Pass,Pass,0.1585183599,0.4883909893,Pass,Pass
 Warmup Convergence Information,THERMAL ZONE 15,SizingPeriod: PHILADELPHIA INTERNATIONAL AP ANN CLG .4% CONDNS DP=>MDB,8.4014174302E-002,0.1565749446,Pass,Pass,0.1716121874,0.5610800461,Pass,Pass
 Warmup Convergence Information,THERMAL ZONE 3,SizingPeriod: PHILADELPHIA INTERNATIONAL AP ANN CLG .4% CONDNS DP=>MDB,4.0446919993E-002,7.7819390957E-002,Pass,Pass,0.2292641524,0.6654943841,Pass,Pass
 Warmup Convergence Information,THERMAL ZONE 10,SizingPeriod: PHILADELPHIA INTERNATIONAL AP ANN CLG .4% CONDNS DP=>MDB,3.9486849863E-002,5.7816119126E-002,Pass,Pass,0.2176203158,0.6687303274,Pass,Pass
 Warmup Convergence Information,THERMAL ZONE 8,SizingPeriod: PHILADELPHIA INTERNATIONAL AP ANN CLG .4% CONDNS DP=>MDB,8.3901322133E-002,0.1462466378,Pass,Pass,0.2046236869,0.5223243289,Pass,Pass
 Warmup Convergence Information,THERMAL ZONE 6,SizingPeriod: PHILADELPHIA INTERNATIONAL AP ANN CLG .4% CONDNS DP=>MDB,7.9768841645E-002,4.2668665046E-002,Pass,Pass,1.1325452731E-002,1.4619909250E-002,Pass,Pass
 Warmup Convergence Information,THERMAL ZONE 5,SizingPeriod: PHILADELPHIA INTERNATIONAL AP ANN CLG .4% CONDNS DP=>MDB,8.4030670460E-002,0.1440593643,Pass,Pass,0.1731153971,0.4105471285,Pass,Pass
 Warmup Convergence Information,THERMAL ZONE 13,SizingPeriod: PHILADELPHIA INTERNATIONAL AP ANN CLG .4% CONDNS DP=>MDB,7.9805639577E-002,8.6146150828E-002,Pass,Pass,0.2029871593,0.8449231168,Pass,Pass
 Warmup Convergence Information,THERMAL ZONE 12,SizingPeriod: PHILADELPHIA INTERNATIONAL AP ANN CLG .4% CONDNS DP=>MDB,8.4430506496E-002,0.1733380768,Pass,Pass,0.2849112864,1.0904212585,Pass,Pass
 Warmup Convergence Information,THERMAL ZONE 14,SizingPeriod: PHILADELPHIA INTERNATIONAL AP ANN CLG .4% CONDNS DP=>MDB,8.4166886512E-002,0.1649225260,Pass,Pass,0.2019611764,0.4532127252,Pass,Pass
 Warmup Convergence Information,THERMAL ZONE 4,SizingPeriod: PHILADELPHIA INTERNATIONAL AP ANN CLG .4% CONDNS DP=>MDB,8.4179576152E-002,0.1631754028,Pass,Pass,9.4392713303E-002,7.8606478884E-002,Pass,Pass
 Warmup Convergence Information,THERMAL ZONE 7,SizingPeriod: PHILADELPHIA INTERNATIONAL AP ANN CLG .4% CONDNS DP=>MDB,8.4007308699E-002,0.1536455004,Pass,Pass,0.1309750452,0.2383005070,Pass,Pass
 Warmup Convergence Information,THERMAL ZONE 9,SizingPeriod: PHILADELPHIA INTERNATIONAL AP ANN CLG .4% CONDNS DP=>MDB,8.4478754300E-002,0.2262254787,Pass,Pass,0.2615702955,0.7504721525,Pass,Pass
[...]
Environment:Daylight Saving,No,SizingPeriod:DesignDay
Environment:Design Day Data,30.20,9.40,DefaultMultipliers,101301,240,5.0,0.00,No ,No 
Environment:Design_Day_Misc,202,1084.4,0.2082,0.1365,1.0,-6.23,20.6,ASHRAETau
Environment:WarmupDays,  6
 Warmup Convergence Information,THERMAL ZONE 1,SizingPeriod: PHILADELPHIA INTERNATIONAL AP ANN CLG 1% CONDNS WB=>MDB,7.6587153604E-002,4.5881303083E-002,Pass,Pass,1.4377756613E-002,2.1831879375E-002,Pass,Pass
 Warmup Convergence Information,THERMAL ZONE 2,SizingPeriod: PHILADELPHIA INTERNATIONAL AP ANN CLG 1% CONDNS WB=>MDB,8.3576028120E-002,8.0305717754E-002,Pass,Pass,4.9732039621E-002,6.1005423381E-002,Pass,Pass
 Warmup Convergence Information,THERMAL ZONE 15,SizingPeriod: PHILADELPHIA INTERNATIONAL AP ANN CLG 1% CONDNS WB=>MDB,8.3805932113E-002,0.1594627808,Pass,Pass,8.3593864075E-002,9.4684184236E-002,Pass,Pass
 Warmup Convergence Information,THERMAL ZONE 3,SizingPeriod: PHILADELPHIA INTERNATIONAL AP ANN CLG 1% CONDNS WB=>MDB,5.1174900969E-002,9.4677973628E-002,Pass,Pass,0.1929125152,0.4828253386,Pass,Pass
 Warmup Convergence Information,THERMAL ZONE 10,SizingPeriod: PHILADELPHIA INTERNATIONAL AP ANN CLG 1% CONDNS WB=>MDB,4.4561172288E-002,6.1580672218E-002,Pass,Pass,0.2146560186,0.6504996038,Pass,Pass
 Warmup Convergence Information,THERMAL ZONE 8,SizingPeriod: PHILADELPHIA INTERNATIONAL AP ANN CLG 1% CONDNS WB=>MDB,8.3832998164E-002,0.1459691108,Pass,Pass,7.5817508973E-002,5.6678688691E-002,Pass,Pass
 Warmup Convergence Information,THERMAL ZONE 6,SizingPeriod: PHILADELPHIA INTERNATIONAL AP ANN CLG 1% CONDNS WB=>MDB,7.1508136338E-002,4.5421840562E-002,Pass,Pass,1.5467954274E-002,2.2500664835E-002,Pass,Pass
 Warmup Convergence Information,THERMAL ZONE 5,SizingPeriod: PHILADELPHIA INTERNATIONAL AP ANN CLG 1% CONDNS WB=>MDB,8.3770193501E-002,0.1439263559,Pass,Pass,6.5451549207E-002,4.4386548233E-002,Pass,Pass
 Warmup Convergence Information,THERMAL ZONE 13,SizingPeriod: PHILADELPHIA INTERNATIONAL AP ANN CLG 1% CONDNS WB=>MDB,8.3601298190E-002,8.3483411759E-002,Pass,Pass,6.3944692402E-002,8.9622371997E-002,Pass,Pass
 Warmup Convergence Information,THERMAL ZONE 12,SizingPeriod: PHILADELPHIA INTERNATIONAL AP ANN CLG 1% CONDNS WB=>MDB,8.4103885906E-002,0.1738685677,Pass,Pass,0.1809706430,0.4119669698,Pass,Pass
 Warmup Convergence Information,THERMAL ZONE 14,SizingPeriod: PHILADELPHIA INTERNATIONAL AP ANN CLG 1% CONDNS WB=>MDB,8.4178163230E-002,0.1659613215,Pass,Pass,0.8903850456,5.0281409606,Pass,Pass
 Warmup Convergence Information,THERMAL ZONE 4,SizingPeriod: PHILADELPHIA INTERNATIONAL AP ANN CLG 1% CONDNS WB=>MDB,8.3961520232E-002,0.1529293185,Pass,Pass,6.3506433056E-002,4.0764365479E-002,Pass,Pass
 Warmup Convergence Information,THERMAL ZONE 7,SizingPeriod: PHILADELPHIA INTERNATIONAL AP ANN CLG 1% CONDNS WB=>MDB,8.3892827310E-002,0.1570671998,Pass,Pass,6.6728984627E-002,6.3844707486E-002,Pass,Pass
 Warmup Convergence Information,THERMAL ZONE 9,SizingPeriod: PHILADELPHIA INTERNATIONAL AP ANN CLG 1% CONDNS WB=>MDB,8.4399610059E-002,0.2226011012,Pass,Pass,14.4035354797,138.5203568579,Pass,Pass
 Warmup Convergence Information,THERMAL ZONE 11,SizingPeriod: PHILADELPHIA INTERNATIONAL AP ANN CLG 1% CONDNS WB=>MDB,8.4026614452E-002,0.1550339264,Pass,Pass,6.8062039117E-002,4.3243554846E-002,Pass,Pass
Environment,PHILADELPHIA INTERNATIONAL AP ANN HTG 99% CONDNS DB,SizingPeriod:DesignDay,01/21,01/21,WinterDesignDay,1,N/A,N/A,N/A,N/A,N/A,N/A
Environment:Daylight Saving,No,SizingPeriod:DesignDay
Environment:Design Day Data,-8.40,0.00,DefaultMultipliers,101301,290,5.2,0.00,No ,No 
Environment:Design_Day_Misc, 21,1229.0,0.1415,5.7310E-002,1.0,-11.15,-20.1,ASHRAEClearSky
Environment:WarmupDays,  6
 Warmup Convergence Information,THERMAL ZONE 1,SizingPeriod: PHILADELPHIA INTERNATIONAL AP ANN HTG 99% CONDNS DB,4.8004035245E-006,4.8876397280E-008,Pass,Pass,1.0621456093E-005,4.5017439983E-009,Pass,Pass
 Warmup Convergence Information,THERMAL ZONE 2,SizingPeriod: PHILADELPHIA INTERNATIONAL AP ANN HTG 99% CONDNS DB,1.6157096393E-005,1.9304489508E-008,Pass,Pass,9.7401199990E-006,1.7664469152E-009,Pass,Pass
 Warmup Convergence Information,THERMAL ZONE 15,SizingPeriod: PHILADELPHIA INTERNATIONAL AP ANN HTG 99% CONDNS DB,1.4647565685E-005,2.4047654208E-008,Pass,Pass,8.9000026882E-006,1.1841403253E-009,Pass,Pass
 Warmup Convergence Information,THERMAL ZONE 3,SizingPeriod: PHILADELPHIA INTERNATIONAL AP ANN HTG 99% CONDNS DB,1.5180873103E-005,5.4997044639E-009,Pass,Pass,9.8915299503E-006,5.3532297409E-010,Pass,Pass
 Warmup Convergence Information,THERMAL ZONE 10,SizingPeriod: PHILADELPHIA INTERNATIONAL AP ANN HTG 99% CONDNS DB,5.4132757169E-006,1.4182688602E-008,Pass,Pass,1.1185557583E-005,1.3786066044E-009,Pass,Pass
 Warmup Convergence Information,THERMAL ZONE 8,SizingPeriod: PHILADELPHIA INTERNATIONAL AP ANN HTG 99% CONDNS DB,1.4883920916E-005,2.2032533995E-008,Pass,Pass,9.1465017579E-006,1.4425051883E-009,Pass,Pass
 Warmup Convergence Information,THERMAL ZONE 6,SizingPeriod: PHILADELPHIA INTERNATIONAL AP ANN HTG 99% CONDNS DB,5.8513145546E-006,5.1407751358E-008,Pass,Pass,1.0940207948E-005,4.8152055898E-009,Pass,Pass
 Warmup Convergence Information,THERMAL ZONE 5,SizingPeriod: PHILADELPHIA INTERNATIONAL AP ANN HTG 99% CONDNS DB,1.6338779011E-005,2.1083615254E-008,Pass,Pass,9.1978227475E-006,1.6360135265E-009,Pass,Pass
 Warmup Convergence Information,THERMAL ZONE 13,SizingPeriod: PHILADELPHIA INTERNATIONAL AP ANN HTG 99% CONDNS DB,1.4990365740E-005,1.8638798339E-008,Pass,Pass,9.8800402959E-006,1.7140416146E-009,Pass,Pass
 Warmup Convergence Information,THERMAL ZONE 12,SizingPeriod: PHILADELPHIA INTERNATIONAL AP ANN HTG 99% CONDNS DB,1.5961555248E-005,5.4689806649E-009,Pass,Pass,9.4382598531E-006,5.2348936138E-010,Pass,Pass
 Warmup Convergence Information,THERMAL ZONE 14,SizingPeriod: PHILADELPHIA INTERNATIONAL AP ANN HTG 99% CONDNS DB,1.6431801866E-005,4.7049939849E-009,Pass,Pass,9.8090770492E-006,6.0254681559E-010,Pass,Pass
 Warmup Convergence Information,THERMAL ZONE 4,SizingPeriod: PHILADELPHIA INTERNATIONAL AP ANN HTG 99% CONDNS DB,5.9793966815E-003,2.8823660718E-008,Pass,Pass,3.3323521166E-003,5.5533661004E-006,Pass,Pass
 Warmup Convergence Information,THERMAL ZONE 7,SizingPeriod: PHILADELPHIA INTERNATIONAL AP ANN HTG 99% CONDNS DB,1.5856901031E-005,2.3105394464E-008,Pass,Pass,8.9540802448E-006,1.4113375026E-009,Pass,Pass
 Warmup Convergence Information,THERMAL ZONE 9,SizingPeriod: PHILADELPHIA INTERNATIONAL AP ANN HTG 99% CONDNS DB,1.5272907189E-005,7.6107971100E-009,Pass,Pass,8.9503057288E-006,4.4636630194E-010,Pass,Pass
 Warmup Convergence Information,THERMAL ZONE 11,SizingPeriod: PHILADELPHIA INTERNATIONAL AP ANN HTG 99% CONDNS DB,1.4424946560E-005,2.9736480419E-008,Pass,Pass,8.6485404968E-006,1.0132780556E-009,Pass,Pass
Environment,PHILADELPHIA INTERNATIONAL AP ANN CLG 2% CONDNS DB=>MWB,SizingPeriod:DesignDay,07/21,07/21,SummerDesignDay,1,N/A,N/A,N/A,N/A,N/A,N/A
Environment:Daylight Saving,No,SizingPeriod:DesignDay
Environment:Design Day Data,31.10,9.40,DefaultMultipliers,101301,240,5.0,0.00,No ,No 
Environment:Design_Day_Misc,202,1084.4,0.2082,0.1365,1.0,-6.23,20.6,ASHRAETau
Environment:WarmupDays,  6
 Warmup Convergence Information,THERMAL ZONE 1,SizingPeriod: PHILADELPHIA INTERNATIONAL AP ANN CLG 2% CONDNS DB=>MWB,7.4068778392E-002,4.7169247495E-002,Pass,Pass,1.5581489959E-002,2.3312315301E-002,Pass,Pass
 Warmup Convergence Information,THERMAL ZONE 2,SizingPeriod: PHILADELPHIA INTERNATIONAL AP ANN CLG 2% CONDNS DB=>MWB,8.3589533064E-002,7.8688281969E-002,Pass,Pass,4.1890821336E-002,4.9326342500E-002,Pass,Pass
 Warmup Convergence Information,THERMAL ZONE 15,SizingPeriod: PHILADELPHIA INTERNATIONAL AP ANN CLG 2% CONDNS DB=>MWB,8.3818523834E-002,0.1575381004,Pass,Pass,6.7207487194E-002,6.3191495016E-002,Pass,Pass
 Warmup Convergence Information,THERMAL ZONE 3,SizingPeriod: PHILADELPHIA INTERNATIONAL AP ANN CLG 2% CONDNS DB=>MWB,5.4980288976E-002,9.7788837375E-002,Pass,Pass,0.4647176706,2.7522903017,Pass,Pass
 Warmup Convergence Information,THERMAL ZONE 10,SizingPeriod: PHILADELPHIA INTERNATIONAL AP ANN CLG 2% CONDNS DB=>MWB,4.6581908326E-002,6.2248619465E-002,Pass,Pass,0.1905918454,0.5177022854,Pass,Pass
 Warmup Convergence Information,THERMAL ZONE 8,SizingPeriod: PHILADELPHIA INTERNATIONAL AP ANN CLG 2% CONDNS DB=>MWB,8.3768311010E-002,0.1446857539,Pass,Pass,6.4620777191E-002,4.2805636407E-002,Pass,Pass
 Warmup Convergence Information,THERMAL ZONE 6,SizingPeriod: PHILADELPHIA INTERNATIONAL AP ANN CLG 2% CONDNS DB=>MWB,6.8531981840E-002,4.6663692898E-002,Pass,Pass,1.6657290311E-002,2.5128347952E-002,Pass,Pass
 Warmup Convergence Information,THERMAL ZONE 5,SizingPeriod: PHILADELPHIA INTERNATIONAL AP ANN CLG 2% CONDNS DB=>MWB,8.3709091743E-002,0.1421253347,Pass,Pass,5.7586694703E-002,3.7210746521E-002,Pass,Pass
 Warmup Convergence Information,THERMAL ZONE 13,SizingPeriod: PHILADELPHIA INTERNATIONAL AP ANN CLG 2% CONDNS DB=>MWB,8.3581668688E-002,8.1196153881E-002,Pass,Pass,4.8835238914E-002,6.0128535999E-002,Pass,Pass
 Warmup Convergence Information,THERMAL ZONE 12,SizingPeriod: PHILADELPHIA INTERNATIONAL AP ANN CLG 2% CONDNS DB=>MWB,8.4202649121E-002,0.1764336593,Pass,Pass,0.2277353616,0.7706698024,Pass,Pass
 Warmup Convergence Information,THERMAL ZONE 14,SizingPeriod: PHILADELPHIA INTERNATIONAL AP ANN CLG 2% CONDNS DB=>MWB,8.4188457235E-002,0.1656829014,Pass,Pass,0.2119627557,0.4460735125,Pass,Pass
 Warmup Convergence Information,THERMAL ZONE 4,SizingPeriod: PHILADELPHIA INTERNATIONAL AP ANN CLG 2% CONDNS DB=>MWB,8.3974789607E-002,0.1498931338,Pass,Pass,5.8349766528E-002,3.9514233396E-002,Pass,Pass
 Warmup Convergence Information,THERMAL ZONE 7,SizingPeriod: PHILADELPHIA INTERNATIONAL AP ANN CLG 2% CONDNS DB=>MWB,8.3757342565E-002,0.1559547905,Pass,Pass,5.8614596606E-002,5.5467064656E-002,Pass,Pass
 Warmup Convergence Information,THERMAL ZONE 9,SizingPeriod: PHILADELPHIA INTERNATIONAL AP ANN CLG 2% CONDNS DB=>MWB,8.4305009442E-002,0.2245025066,Pass,Pass,0.2408732288,0.5403397950,Pass,Pass
 Warmup Convergence Information,THERMAL ZONE 11,SizingPeriod: PHILADELPHIA INTERNATIONAL AP ANN CLG 2% CONDNS DB=>MWB,8.4059743735E-002,0.1523388363,Pass,Pass,6.1675801383E-002,4.1383186221E-002,Pass,Pass
Environment,PHILADELPHIA INTERNATIONAL AP ANN CLG 2% CONDNS WB=>MDB,SizingPeriod:DesignDay,07/21,07/21,SummerDesignDay,1,N/A,N/A,N/A,N/A,N/A,N/A
Environment:Daylight Saving,No,SizingPeriod:DesignDay
Environment:Design Day Data,28.80,9.40,DefaultMultipliers,101301,240,5.0,0.00,No ,No 
Environment:Design_Day_Misc,202,1084.4,0.2082,0.1365,1.0,-6.23,20.6,ASHRAETau
Environment:WarmupDays,  6
 Warmup Convergence Information,THERMAL ZONE 1,SizingPeriod: PHILADELPHIA INTERNATIONAL AP ANN CLG 2% CONDNS WB=>MDB,8.1122916728E-002,4.5089921236E-002,Pass,Pass,1.1903946158E-002,1.7016339400E-002,Pass,Pass
 Warmup Convergence Information,THERMAL ZONE 2,SizingPeriod: PHILADELPHIA INTERNATIONAL AP ANN CLG 2% CONDNS WB=>MDB,8.3709854106E-002,8.3703441125E-002,Pass,Pass,0.1596991266,0.6331477724,Pass,Pass
 Warmup Convergence Information,THERMAL ZONE 15,SizingPeriod: PHILADELPHIA INTERNATIONAL AP ANN CLG 2% CONDNS WB=>MDB,8.3983653774E-002,0.1576979346,Pass,Pass,0.1339063079,0.2683780107,Pass,Pass
 Warmup Convergence Information,THERMAL ZONE 3,SizingPeriod: PHILADELPHIA INTERNATIONAL AP ANN CLG 2% CONDNS WB=>MDB,4.3788365369E-002,8.2956601053E-002,Pass,Pass,0.2304614685,0.6560053850,Pass,Pass
 Warmup Convergence Information,THERMAL ZONE 10,SizingPeriod: PHILADELPHIA INTERNATIONAL AP ANN CLG 2% CONDNS WB=>MDB,4.1138436555E-002,5.9031539288E-002,Pass,Pass,0.2015971670,0.5918913126,Pass,Pass
 Warmup Convergence Information,THERMAL ZONE 8,SizingPeriod: PHILADELPHIA INTERNATIONAL AP ANN CLG 2% CONDNS WB=>MDB,8.3857206261E-002,0.1439204038,Pass,Pass,0.1759974666,0.4017395565,Pass,Pass
 Warmup Convergence Information,THERMAL ZONE 6,SizingPeriod: PHILADELPHIA INTERNATIONAL AP ANN CLG 2% CONDNS WB=>MDB,7.7047403815E-002,4.3991409795E-002,Pass,Pass,1.2828262278E-002,1.8323834356E-002,Pass,Pass
 Warmup Convergence Information,THERMAL ZONE 5,SizingPeriod: PHILADELPHIA INTERNATIONAL AP ANN CLG 2% CONDNS WB=>MDB,8.3884981142E-002,0.1416665829,Pass,Pass,0.1070168124,0.1284530627,Pass,Pass
 Warmup Convergence Information,THERMAL ZONE 13,SizingPeriod: PHILADELPHIA INTERNATIONAL AP ANN CLG 2% CONDNS WB=>MDB,8.3610993481E-002,8.5875401789E-002,Pass,Pass,0.2315929760,1.2664652694,Pass,Pass
 Warmup Convergence Information,THERMAL ZONE 12,SizingPeriod: PHILADELPHIA INTERNATIONAL AP ANN CLG 2% CONDNS WB=>MDB,8.4535483843E-002,0.1730446537,Pass,Pass,0.4147592141,2.1503810035,Pass,Pass
 Warmup Convergence Information,THERMAL ZONE 14,SizingPeriod: PHILADELPHIA INTERNATIONAL AP ANN CLG 2% CONDNS WB=>MDB,8.4371485620E-002,0.1657249489,Pass,Pass,0.5138539220,3.2171891778,Pass,Pass
 Warmup Convergence Information,THERMAL ZONE 4,SizingPeriod: PHILADELPHIA INTERNATIONAL AP ANN CLG 2% CONDNS WB=>MDB,8.4053715912E-002,0.1610303450,Pass,Pass,7.8906745425E-002,5.2083991384E-002,Pass,Pass
 Warmup Convergence Information,THERMAL ZONE 7,SizingPeriod: PHILADELPHIA INTERNATIONAL AP ANN CLG 2% CONDNS WB=>MDB,8.4014160250E-002,0.1545494155,Pass,Pass,0.1441344123,0.4018926941,Pass,Pass
 Warmup Convergence Information,THERMAL ZONE 9,SizingPeriod: PHILADELPHIA INTERNATIONAL AP ANN CLG 2% CONDNS WB=>MDB,8.4379137046E-002,0.2250706060,Pass,Pass,0.2975226365,0.8892085654,Pass,Pass
 Warmup Convergence Information,THERMAL ZONE 11,SizingPeriod: PHILADELPHIA INTERNATIONAL AP ANN CLG 2% CONDNS WB=>MDB,8.4069708516E-002,0.1619549384,Pass,Pass,8.5739411085E-002,6.2554504864E-002,Pass,Pass
Environment,PHILADELPHIA INTERNATIONAL AP ANN CLG 2% CONDNS DP=>MDB,SizingPeriod:DesignDay,07/21,07/21,SummerDesignDay,1,N/A,N/A,N/A,N/A,N/A,N/A
Environment:Daylight Saving,No,SizingPeriod:DesignDay
Environment:Design Day Data,26.80,9.40,DefaultMultipliers,101301,240,5.0,0.00,No ,No 
Environment:Design_Day_Misc,202,1084.4,0.2082,0.1365,1.0,-6.23,20.6,ASHRAETau
Environment:WarmupDays,  6
 Warmup Convergence Information,THERMAL ZONE 1,SizingPeriod: PHILADELPHIA INTERNATIONAL AP ANN CLG 2% CONDNS DP=>MDB,8.3362487864E-002,4.4850695559E-002,Pass,Pass,1.4132263968E-002,2.5784703969E-002,Pass,Pass
 Warmup Convergence Information,THERMAL ZONE 2,SizingPeriod: PHILADELPHIA INTERNATIONAL AP ANN CLG 2% CONDNS DP=>MDB,7.1103184028E-002,8.3285268494E-002,Pass,Pass,0.1704554220,0.4584107967,Pass,Pass
 Warmup Convergence Information,THERMAL ZONE 15,SizingPeriod: PHILADELPHIA INTERNATIONAL AP ANN CLG 2% CONDNS DP=>MDB,8.3982412956E-002,0.1537983578,Pass,Pass,0.4058418362,1.9529605070,Pass,Pass
 Warmup Convergence Information,THERMAL ZONE 3,SizingPeriod: PHILADELPHIA INTERNATIONAL AP ANN CLG 2% CONDNS DP=>MDB,3.3836572633E-002,6.9370711645E-002,Pass,Pass,0.2577103234,0.7945023563,Pass,Pass
 Warmup Convergence Information,THERMAL ZONE 10,SizingPeriod: PHILADELPHIA INTERNATIONAL AP ANN CLG 2% CONDNS DP=>MDB,3.6244071561E-002,5.5322751822E-002,Pass,Pass,0.2015839170,0.5863713205,Pass,Pass
 Warmup Convergence Information,THERMAL ZONE 8,SizingPeriod: PHILADELPHIA INTERNATIONAL AP ANN CLG 2% CONDNS DP=>MDB,8.4096625331E-002,0.1463478164,Pass,Pass,0.2901576546,1.0339985990,Pass,Pass
 Warmup Convergence Information,THERMAL ZONE 6,SizingPeriod: PHILADELPHIA INTERNATIONAL AP ANN CLG 2% CONDNS DP=>MDB,8.3344176190E-002,4.0612224294E-002,Pass,Pass,1.0048628379E-002,1.0591777589E-002,Pass,Pass
 Warmup Convergence Information,THERMAL ZONE 5,SizingPeriod: PHILADELPHIA INTERNATIONAL AP ANN CLG 2% CONDNS DP=>MDB,8.4209822273E-002,0.1436881587,Pass,Pass,0.2347158104,0.6944923648,Pass,Pass
 Warmup Convergence Information,THERMAL ZONE 13,SizingPeriod: PHILADELPHIA INTERNATIONAL AP ANN CLG 2% CONDNS DP=>MDB,7.2014292925E-002,8.5111270187E-002,Pass,Pass,0.1597117285,0.3922950625,Pass,Pass
 Warmup Convergence Information,THERMAL ZONE 12,SizingPeriod: PHILADELPHIA INTERNATIONAL AP ANN CLG 2% CONDNS DP=>MDB,8.4161857311E-002,0.1746712469,Pass,Pass,0.2615469376,1.1170719755,Pass,Pass
 Warmup Convergence Information,THERMAL ZONE 14,SizingPeriod: PHILADELPHIA INTERNATIONAL AP ANN CLG 2% CONDNS DP=>MDB,8.4094239375E-002,0.1642714545,Pass,Pass,0.2148171931,0.5754864622,Pass,Pass
 Warmup Convergence Information,THERMAL ZONE 4,SizingPeriod: PHILADELPHIA INTERNATIONAL AP ANN CLG 2% CONDNS DP=>MDB,8.4255890490E-002,0.1652520803,Pass,Pass,0.2536823973,0.8346561843,Pass,Pass
 Warmup Convergence Information,THERMAL ZONE 7,SizingPeriod: PHILADELPHIA INTERNATIONAL AP ANN CLG 2% CONDNS DP=>MDB,8.3932660124E-002,0.1501240551,Pass,Pass,0.2227314007,0.7291667027,Pass,Pass
 Warmup Convergence Information,THERMAL ZONE 9,SizingPeriod: PHILADELPHIA INTERNATIONAL AP ANN CLG 2% CONDNS DP=>MDB,8.4605158421E-002,0.2277652911,Pass,Pass,0.3307053705,1.2923832904,Pass,Pass
 Warmup Convergence Information,THERMAL ZONE 11,SizingPeriod: PHILADELPHIA INTERNATIONAL AP ANN CLG 2% CONDNS DP=>MDB,8.4200375821E-002,0.1657591882,Pass,Pass,0.1908782607,0.4526167687,Pass,Pass
Environment,RUN PERIOD 1,WeatherFileRunPeriod,01/01,12/31,Thursday,365,Use RunPeriod Specified Day,Yes,Yes,No ,Yes,Yes
Environment:Daylight Saving,Yes,InputFile,03/08,11/01
Environment:WarmupDays,  6
 Warmup Convergence Information,THERMAL ZONE 1,RunPeriod: RUN PERIOD 1,6.8653972197E-004,5.7970101657E-004,Pass,Pass,0.2365509507,0.8443729134,Pass,Pass
 Warmup Convergence Information,THERMAL ZONE 2,RunPeriod: RUN PERIOD 1,3.4029319499E-003,2.6505304453E-003,Pass,Pass,1.3337693429E-002,1.0269394657E-002,Pass,Pass
 Warmup Convergence Information,THERMAL ZONE 15,RunPeriod: RUN PERIOD 1,2.8280620474E-003,2.0673136172E-003,Pass,Pass,0.2384381654,1.0102033696,Pass,Pass
 Warmup Convergence Information,THERMAL ZONE 3,RunPeriod: RUN PERIOD 1,3.3561840830E-003,2.6760097171E-003,Pass,Pass,1.3681059013E-002,1.1910732208E-002,Pass,Pass
 Warmup Convergence Information,THERMAL ZONE 10,RunPeriod: RUN PERIOD 1,2.7172948311E-003,4.8938885185E-003,Pass,Pass,7.1211136027E-002,8.9220579293E-002,Pass,Pass
 Warmup Convergence Information,THERMAL ZONE 8,RunPeriod: RUN PERIOD 1,8.5055629163E-002,0.2014506090,Pass,Pass,1.5118022534,12.5086270307,Pass,Pass
 Warmup Convergence Information,THERMAL ZONE 6,RunPeriod: RUN PERIOD 1,9.4217190999E-004,9.6087009048E-004,Pass,Pass,0.2591620505,0.9782999079,Pass,Pass
 Warmup Convergence Information,THERMAL ZONE 5,RunPeriod: RUN PERIOD 1,8.5104190401E-002,0.1970069733,Pass,Pass,0.1951475502,0.5183584971,Pass,Pass
 Warmup Convergence Information,THERMAL ZONE 13,RunPeriod: RUN PERIOD 1,3.2167389137E-003,2.5764234348E-003,Pass,Pass,1.4264501812E-002,1.1295265655E-002,Pass,Pass
 Warmup Convergence Information,THERMAL ZONE 12,RunPeriod: RUN PERIOD 1,3.3660207141E-003,2.6607594649E-003,Pass,Pass,0.2381323063,1.0087373358,Pass,Pass
 Warmup Convergence Information,THERMAL ZONE 14,RunPeriod: RUN PERIOD 1,8.5352243883E-002,0.2441544028,Pass,Pass,0.1978991099,0.7622350476,Pass,Pass
 Warmup Convergence Information,THERMAL ZONE 4,RunPeriod: RUN PERIOD 1,2.6740382159E-003,2.1654714138E-003,Pass,Pass,1.7516914166,15.5949067519,Pass,Pass
 Warmup Convergence Information,THERMAL ZONE 7,RunPeriod: RUN PERIOD 1,2.8828446045E-003,2.4921564871E-003,Pass,Pass,7.6344589875E-002,0.1554709097,Pass,Pass
 Warmup Convergence Information,THERMAL ZONE 9,RunPeriod: RUN PERIOD 1,1.9092804435E-002,5.9548591352E-002,Pass,Pass,0.1377777717,0.5132819827,Pass,Pass
 Warmup Convergence Information,THERMAL ZONE 11,RunPeriod: RUN PERIOD 1,2.7764188993E-003,2.2143764649E-003,Pass,Pass,0.2776604812,1.1617743203,Pass,Pass
! <Program Control Information:Threads/Parallel Sims>, Threading Supported,Maximum Number of Threads, Env Set Threads (OMP_NUM_THREADS), EP Env Set Threads (EP_OMP_NUM_THREADS), IDF Set Threads, Number of Threads Used (Interior Radiant Exchange), Number Nominal Surfaces, Number Parallel Sims
Program Control:Threads/Parallel Sims, Yes,1, Not Set, Not Set, 1, 1, 102, N/A
End of Data
