Program Version,EnergyPlus-Linux-OMP-32 7.2.0.006, YMD=2013.06.19 03:17
