Program Version,EnergyPlus-Linux-OMP-32 7.2.0.006, YMD=2013.06.20 13:13
! <Version>, Version ID
 Version, 7.2
! <Timesteps per Hour>, #TimeSteps, Minutes per TimeStep {minutes}
 Timesteps per Hour,  4, 15
! <System Convergence Limits>, Minimum System TimeStep {minutes}, Max HVAC Iterations,  Minimum Plant Iterations, Maximum Plant Iterations
 System Convergence Limits, 1, 20, 2, 8
! <Simulation Control>, Do Zone Sizing, Do System Sizing, Do Plant Sizing, Do Design Days, Do Weather Simulation
 Simulation Control, Yes, Yes, Yes, Yes, Yes
! <Output Reporting Tolerances>, Tolerance for Time Heating Setpoint Not Met, Tolerance for Time Cooling Setpoint Not Met
 Output Reporting Tolerances, 0.200, 0.200, 
! <Site:GroundTemperature:BuildingSurface>, Months From Jan to Dec {Deg C}
 Site:GroundTemperature:BuildingSurface,  18.00,  18.00,  18.00,  18.00,  18.00,  18.00,  18.00,  18.00,  18.00,  18.00,  18.00,  18.00
! <Site:GroundTemperature:FCfactorMethod>, Months From Jan to Dec {Deg C}
 Site:GroundTemperature:FCfactorMethod,   1.62,   0.54,   2.47,   5.49,  13.39,  19.49,  23.60,  24.85,  22.72,  17.98,  11.66,   5.79
! <Site:GroundTemperature:Shallow>, Months From Jan to Dec {Deg C}
 Site:GroundTemperature:Shallow,  13.00,  13.00,  13.00,  13.00,  13.00,  13.00,  13.00,  13.00,  13.00,  13.00,  13.00,  13.00
! <Site:GroundTemperature:Deep>, Months From Jan to Dec {Deg C}
 Site:GroundTemperature:Deep,  16.00,  16.00,  16.00,  16.00,  16.00,  16.00,  16.00,  16.00,  16.00,  16.00,  16.00,  16.00
! <Site:GroundReflectance>, Months From Jan to Dec {dimensionless}
 Site:GroundReflectance,  0.20,  0.20,  0.20,  0.20,  0.20,  0.20,  0.20,  0.20,  0.20,  0.20,  0.20,  0.20
! <Site:GroundReflectance:SnowModifier>, Normal, Daylighting {dimensionless}
 Site:GroundReflectance:SnowModifier,   1.000,   1.000
! <Site:GroundReflectance:Snow>, Months From Jan to Dec {dimensionless}
 Site:GroundReflectance:Snow,  0.20,  0.20,  0.20,  0.20,  0.20,  0.20,  0.20,  0.20,  0.20,  0.20,  0.20,  0.20
! <Site:GroundReflectance:Snow:Daylighting>, Months From Jan to Dec {dimensionless}
 Site:GroundReflectance:Snow:Daylighting,  0.20,  0.20,  0.20,  0.20,  0.20,  0.20,  0.20,  0.20,  0.20,  0.20,  0.20,  0.20
! <Environment:Weather Station>,Wind Sensor Height Above Ground {m},Wind Speed Profile Exponent {},Wind Speed Profile Boundary Layer Thickness {m},Air Temperature Sensor Height Above Ground {m},Wind Speed Modifier Coefficient [Internal],Temperature Modifier Coefficient [Internal]
Environment:Weather Station,10.000,0.140,270.000,1.500,1.586,9.750E-003
! <Site:Location>, Location Name, Latitude {N+/S- Deg}, Longitude {E+/W- Deg},  Time Zone Number {GMT+/-}, Elevation {m},  Standard Pressure at Elevation {Pa}, Standard RhoAir at Elevation
Site:Location,Philadelphia International Ap PA USA TMY3 WMO#=724080,39.87,-75.23,-5.00,2.00,101301,1.2040
! <Building Information>, Building Name,North Axis {deg},Terrain,  Loads Convergence Tolerance Value,Temperature Convergence Tolerance Value,  Solar Distribution,Maximum Number of Warmup Days,Minimum Number of Warmup Days
 Building Information,Building 1,0.000,Suburbs,4.00000E-002,0.40000,FullExterior,25,6
! <Inside Convection Algorithm>, Algorithm {Simple | TARP | CeilingDiffuser | AdaptiveConvectionAlgorithm}
Inside Convection Algorithm,TARP
! <Outside Convection Algorithm>, Algorithm {SimpleCombined | TARP | MoWitt | DOE-2 | AdaptiveConvectionAlgorithm}
Outside Convection Algorithm,DOE-2
! <Sky Radiance Distribution>, Value {Anisotropic}
Sky Radiance Distribution,Anisotropic
! <Zone Air Solution Algorithm>, Value {ThirdOrderBackwardDifference | AnalyticalSolution | EulerMethod}
 Zone Air Solution Algorithm, ThirdOrderBackwardDifference
! <Zone Air Contaminant Balance Simulation>, Simulation {Yes/No}, Carbon Dioxide Concentration
 Zone Air Carbon Dioxide Balance Simulation, No,N/A
! <Zone Air Contaminant Balance Simulation>, Simulation {Yes/No}, Generic Contaminant Concentration
 Zone Air Generic Contaminant Balance Simulation, No,N/A
! <Environment:Site Atmospheric Variation>,Wind Speed Profile Exponent {},Wind Speed Profile Boundary Layer Thickness {m},Air Temperature Gradient Coefficient {K/m}
Environment:Site Atmospheric Variation,0.220,370.000,6.500000E-003
! <SurfaceGeometry>,Starting Corner,Vertex Input Direction,Coordinate System,Daylight Reference Point Coordinate System,Rectangular (Simple) Surface Coordinate System
 Surface Geometry,UpperLeftCorner,Counterclockwise,RelativeCoordinateSystem,RelativeCoordinateSystem,RelativeToZoneOrigin
! <Surface Heat Transfer Algorithm>, Value {CTF - ConductionTransferFunction | EMPD - MoisturePenetrationDepthConductionTransferFunction | CondFD - ConductionFiniteDifference | HAMT - CombinedHeatAndMoistureFiniteElement} - Description,Inside Surface Max Temperature Limit{C}, Surface Convection Coefficient Lower Limit {W/m2-K}, Surface Convection Coefficient Upper Limit {W/m2-K}
Surface Heat Transfer Algorithm, CTF - ConductionTransferFunction,200,0.10,1000.0
! <Shading Summary>, Number of Fixed Detached Shades, Number of Building Detached Shades, Number of Attached Shades
 Shading Summary,0,0,0
! <Zone Summary>, Number of Zones, Number of Zone Surfaces, Number of SubSurfaces
 Zone Summary,25,170,20
! <Zone Information>,Zone Name,North Axis {deg},Origin X-Coordinate {m},Origin Y-Coordinate {m},Origin Z-Coordinate {m},Centroid X-Coordinate {m},Centroid Y-Coordinate {m},Centroid Z-Coordinate {m},Type,Zone Multiplier,Zone List Multiplier,Minimum X {m},Maximum X {m},Minimum Y {m},Maximum Y {m},Minimum Z {m},Maximum Z {m},Ceiling Height {m},Volume {m3},Zone Inside Convection Algorithm {Simple-Detailed-CeilingDiffuser-TrombeWall},Zone Outside Convection Algorithm {Simple-Detailed-Tarp-MoWitt-DOE-2-BLAST}, Floor Area {m2},Exterior Gross Wall Area {m2},Exterior Net Wall Area {m2},Exterior Window Area {m2}, Number of Surfaces, Number of SubSurfaces, Number of Shading SubSurfaces,  Part of Total Building Area
 Zone Information, THERMAL ZONE 19,0.0,3.00,3.00,0.00,7.91,7.91,2.00,1,1,1,3.00,12.81,3.00,12.81,0.00,4.00,4.00,385.05,TARP,DOE-2,96.26,0.00,0.00,0.00,6,0,0,Yes
 Zone Information, THERMAL ZONE 16,0.0,0.00,0.00,8.00,1.29,7.91,10.00,1,1,1,0.00,3.00,0.00,15.81,8.00,12.00,4.00,153.74,TARP,DOE-2,38.43,63.25,47.43,15.81,6,1,0,Yes
 Zone Information, THERMAL ZONE 25,0.0,3.00,12.81,12.00,7.91,14.52,14.00,1,1,1,0.00,15.81,12.81,15.81,12.00,16.00,4.00,153.74,TARP,DOE-2,38.43,63.25,47.43,15.81,6,1,0,Yes
 Zone Information, THERMAL ZONE 22,0.0,12.81,3.00,16.00,14.52,7.91,18.00,1,1,1,12.81,15.81,0.00,15.81,16.00,20.00,4.00,153.74,TARP,DOE-2,38.43,63.25,47.43,15.81,6,1,0,Yes
 Zone Information, THERMAL ZONE 10,0.0,3.00,12.81,0.00,7.91,14.52,2.00,1,1,1,0.00,15.81,12.81,15.81,0.00,4.00,4.00,153.74,TARP,DOE-2,38.43,63.25,47.43,15.81,6,1,0,Yes
 Zone Information, THERMAL ZONE 6,0.0,0.00,0.00,0.00,7.91,1.29,2.00,1,1,1,0.00,15.81,0.00,3.00,0.00,4.00,4.00,153.74,TARP,DOE-2,38.43,63.25,47.43,15.81,6,1,0,Yes
 Zone Information, THERMAL ZONE 21,0.0,12.81,3.00,4.00,14.52,7.91,6.00,1,1,1,12.81,15.81,0.00,15.81,4.00,8.00,4.00,153.74,TARP,DOE-2,38.43,63.25,47.43,15.81,6,1,0,Yes
 Zone Information, THERMAL ZONE 24,0.0,12.81,3.00,8.00,14.52,7.91,10.00,1,1,1,12.81,15.81,0.00,15.81,8.00,12.00,4.00,153.74,TARP,DOE-2,38.43,63.25,47.43,15.81,6,1,0,Yes
 Zone Information, THERMAL ZONE 17,0.0,0.00,0.00,12.00,7.91,1.29,14.00,1,1,1,0.00,15.81,0.00,3.00,12.00,16.00,4.00,153.74,TARP,DOE-2,38.43,63.25,47.43,15.81,6,1,0,Yes
 Zone Information, THERMAL ZONE 15,0.0,0.00,0.00,4.00,1.29,7.91,6.00,1,1,1,0.00,3.00,0.00,15.81,4.00,8.00,4.00,153.74,TARP,DOE-2,38.43,63.25,47.43,15.81,6,1,0,Yes
 Zone Information, THERMAL ZONE 1,0.0,12.81,3.00,0.00,14.52,7.91,2.00,1,1,1,12.81,15.81,0.00,15.81,0.00,4.00,4.00,153.74,TARP,DOE-2,38.43,63.25,47.43,15.81,6,1,0,Yes
 Zone Information, THERMAL ZONE 7,0.0,0.00,0.00,16.00,1.29,7.91,18.00,1,1,1,0.00,3.00,0.00,15.81,16.00,20.00,4.00,153.74,TARP,DOE-2,38.43,63.25,47.43,15.81,6,1,0,Yes
 Zone Information, THERMAL ZONE 5,0.0,0.00,0.00,0.00,1.29,7.91,2.00,1,1,1,0.00,3.00,0.00,15.81,0.00,4.00,4.00,153.74,TARP,DOE-2,38.43,63.25,47.43,15.81,6,1,0,Yes
 Zone Information, THERMAL ZONE 23,0.0,0.00,0.00,8.00,7.91,1.29,10.00,1,1,1,0.00,15.81,0.00,3.00,8.00,12.00,4.00,153.74,TARP,DOE-2,38.43,63.25,47.43,15.81,6,1,0,Yes
 Zone Information, THERMAL ZONE 4,0.0,3.00,12.81,4.00,7.91,14.52,6.00,1,1,1,0.00,15.81,12.81,15.81,4.00,8.00,4.00,153.74,TARP,DOE-2,38.43,63.25,47.43,15.81,6,1,0,Yes
 Zone Information, THERMAL ZONE 14,0.0,3.00,12.81,8.00,7.91,14.52,10.00,1,1,1,0.00,15.81,12.81,15.81,8.00,12.00,4.00,153.74,TARP,DOE-2,38.43,63.25,47.43,15.81,6,1,0,Yes
 Zone Information, THERMAL ZONE 8,0.0,3.00,3.00,4.00,7.91,7.91,6.00,1,1,1,3.00,12.81,3.00,12.81,4.00,8.00,4.00,385.05,TARP,DOE-2,96.26,0.00,0.00,0.00,6,0,0,Yes
 Zone Information, THERMAL ZONE 13,0.0,3.00,3.00,12.00,7.91,7.91,14.00,1,1,1,3.00,12.81,3.00,12.81,12.00,16.00,4.00,385.05,TARP,DOE-2,96.26,0.00,0.00,0.00,6,0,0,Yes
 Zone Information, THERMAL ZONE 20,0.0,12.81,3.00,12.00,14.52,7.91,14.00,1,1,1,12.81,15.81,0.00,15.81,12.00,16.00,4.00,153.74,TARP,DOE-2,38.43,63.25,47.43,15.81,6,1,0,Yes
 Zone Information, THERMAL ZONE 9,0.0,0.00,0.00,4.00,7.91,1.29,6.00,1,1,1,0.00,15.81,0.00,3.00,4.00,8.00,4.00,153.74,TARP,DOE-2,38.43,63.25,47.43,15.81,6,1,0,Yes
 Zone Information, THERMAL ZONE 2,0.0,3.00,3.00,8.00,7.91,7.91,10.00,1,1,1,3.00,12.81,3.00,12.81,8.00,12.00,4.00,385.05,TARP,DOE-2,96.26,0.00,0.00,0.00,6,0,0,Yes
 Zone Information, THERMAL ZONE 11,0.0,3.00,12.81,16.00,7.91,14.52,18.00,1,1,1,0.00,15.81,12.81,15.81,16.00,20.00,4.00,153.74,TARP,DOE-2,38.43,63.25,47.43,15.81,6,1,0,Yes
 Zone Information, THERMAL ZONE 12,0.0,0.00,0.00,16.00,7.91,1.29,18.00,1,1,1,0.00,15.81,0.00,3.00,16.00,20.00,4.00,153.74,TARP,DOE-2,38.43,63.25,47.43,15.81,6,1,0,Yes
 Zone Information, THERMAL ZONE 3,0.0,0.00,0.00,12.00,1.29,7.91,14.00,1,1,1,0.00,3.00,0.00,15.81,12.00,16.00,4.00,153.74,TARP,DOE-2,38.43,63.25,47.43,15.81,6,1,0,Yes
 Zone Information, THERMAL ZONE 18,0.0,3.00,3.00,16.00,7.91,7.91,18.00,1,1,1,3.00,12.81,3.00,12.81,16.00,20.00,4.00,385.05,TARP,DOE-2,96.26,0.00,0.00,0.00,6,0,0,Yes
! <Zone Internal Gains/Equipment Information - Nominal>,Zone Name, Floor Area {m2},# Occupants,Area per Occupant {m2/person},Occupant per Area {person/m2},Interior Lighting {W/m2},Electric Load {W/m2},Gas Load {W/m2},Other Load {W/m2},Hot Water Eq {W/m2},Steam Equipment {W/m2},Sum Loads per Area {W/m2},Outdoor Controlled Baseboard Heat
 Zone Internal Gains, THERMAL ZONE 19,96.26,5.2,18.581,5.382E-002,10.764,10.764,0.000,0.000,0.000,0.000,21.528,No
 Zone Internal Gains, THERMAL ZONE 16,38.43,2.1,18.581,5.382E-002,10.764,10.764,0.000,0.000,0.000,0.000,21.528,No
 Zone Internal Gains, THERMAL ZONE 25,38.43,2.1,18.581,5.382E-002,10.764,10.764,0.000,0.000,0.000,0.000,21.528,No
 Zone Internal Gains, THERMAL ZONE 22,38.43,2.1,18.581,5.382E-002,10.764,10.764,0.000,0.000,0.000,0.000,21.528,No
 Zone Internal Gains, THERMAL ZONE 10,38.43,2.1,18.581,5.382E-002,10.764,10.764,0.000,0.000,0.000,0.000,21.528,No
 Zone Internal Gains, THERMAL ZONE 6,38.43,2.1,18.581,5.382E-002,10.764,10.764,0.000,0.000,0.000,0.000,21.528,No
 Zone Internal Gains, THERMAL ZONE 21,38.43,2.1,18.581,5.382E-002,10.764,10.764,0.000,0.000,0.000,0.000,21.528,No
 Zone Internal Gains, THERMAL ZONE 24,38.43,2.1,18.581,5.382E-002,10.764,10.764,0.000,0.000,0.000,0.000,21.528,No
 Zone Internal Gains, THERMAL ZONE 17,38.43,2.1,18.581,5.382E-002,10.764,10.764,0.000,0.000,0.000,0.000,21.528,No
 Zone Internal Gains, THERMAL ZONE 15,38.43,2.1,18.581,5.382E-002,10.764,10.764,0.000,0.000,0.000,0.000,21.528,No
 Zone Internal Gains, THERMAL ZONE 1,38.43,2.1,18.581,5.382E-002,10.764,10.764,0.000,0.000,0.000,0.000,21.528,No
 Zone Internal Gains, THERMAL ZONE 7,38.43,2.1,18.581,5.382E-002,10.764,10.764,0.000,0.000,0.000,0.000,21.528,No
 Zone Internal Gains, THERMAL ZONE 5,38.43,2.1,18.581,5.382E-002,10.764,10.764,0.000,0.000,0.000,0.000,21.528,No
 Zone Internal Gains, THERMAL ZONE 23,38.43,2.1,18.581,5.382E-002,10.764,10.764,0.000,0.000,0.000,0.000,21.528,No
 Zone Internal Gains, THERMAL ZONE 4,38.43,2.1,18.581,5.382E-002,10.764,10.764,0.000,0.000,0.000,0.000,21.528,No
 Zone Internal Gains, THERMAL ZONE 14,38.43,2.1,18.581,5.382E-002,10.764,10.764,0.000,0.000,0.000,0.000,21.528,No
 Zone Internal Gains, THERMAL ZONE 8,96.26,5.2,18.581,5.382E-002,10.764,10.764,0.000,0.000,0.000,0.000,21.528,No
 Zone Internal Gains, THERMAL ZONE 13,96.26,5.2,18.581,5.382E-002,10.764,10.764,0.000,0.000,0.000,0.000,21.528,No
 Zone Internal Gains, THERMAL ZONE 20,38.43,2.1,18.581,5.382E-002,10.764,10.764,0.000,0.000,0.000,0.000,21.528,No
 Zone Internal Gains, THERMAL ZONE 9,38.43,2.1,18.581,5.382E-002,10.764,10.764,0.000,0.000,0.000,0.000,21.528,No
 Zone Internal Gains, THERMAL ZONE 2,96.26,5.2,18.581,5.382E-002,10.764,10.764,0.000,0.000,0.000,0.000,21.528,No
 Zone Internal Gains, THERMAL ZONE 11,38.43,2.1,18.581,5.382E-002,10.764,10.764,0.000,0.000,0.000,0.000,21.528,No
 Zone Internal Gains, THERMAL ZONE 12,38.43,2.1,18.581,5.382E-002,10.764,10.764,0.000,0.000,0.000,0.000,21.528,No
 Zone Internal Gains, THERMAL ZONE 3,38.43,2.1,18.581,5.382E-002,10.764,10.764,0.000,0.000,0.000,0.000,21.528,No
 Zone Internal Gains, THERMAL ZONE 18,96.26,5.2,18.581,5.382E-002,10.764,10.764,0.000,0.000,0.000,0.000,21.528,No
! <People Internal Gains - Nominal>,Name,Schedule Name,Zone Name,Zone Floor Area {m2},# Zone Occupants,Number of People {},People/Floor Area {person/m2},Floor Area per person {m2/person},Fraction Radiant,Fraction Convected,Sensible Fraction Calculation,Activity level,ASHRAE 55 Warnings,Carbon Dioxide Generation Rate 
 People Internal Gains, THERMAL ZONE 1 ASHRAE_90.1-2004 CLIMATEZONE 1-8 SMALLOFFICE WHOLEBUILDING PEOPLE,SMALL OFFICE_BLDG_OCC,THERMAL ZONE 1,38.43,2.1,2.1,5.382E-002,18.581,0.300,0.700,AutoCalculate,SMALL OFFICE_ACTIVITY,No,3.8200E-008
 People Internal Gains, THERMAL ZONE 10 ASHRAE_90.1-2004 CLIMATEZONE 1-8 SMALLOFFICE WHOLEBUILDING PEOPLE,SMALL OFFICE_BLDG_OCC,THERMAL ZONE 10,38.43,2.1,2.1,5.382E-002,18.581,0.300,0.700,AutoCalculate,SMALL OFFICE_ACTIVITY,No,3.8200E-008
 People Internal Gains, THERMAL ZONE 11 ASHRAE_90.1-2004 CLIMATEZONE 1-8 SMALLOFFICE WHOLEBUILDING PEOPLE,SMALL OFFICE_BLDG_OCC,THERMAL ZONE 11,38.43,2.1,2.1,5.382E-002,18.581,0.300,0.700,AutoCalculate,SMALL OFFICE_ACTIVITY,No,3.8200E-008
 People Internal Gains, THERMAL ZONE 12 ASHRAE_90.1-2004 CLIMATEZONE 1-8 SMALLOFFICE WHOLEBUILDING PEOPLE,SMALL OFFICE_BLDG_OCC,THERMAL ZONE 12,38.43,2.1,2.1,5.382E-002,18.581,0.300,0.700,AutoCalculate,SMALL OFFICE_ACTIVITY,No,3.8200E-008
 People Internal Gains, THERMAL ZONE 13 ASHRAE_90.1-2004 CLIMATEZONE 1-8 SMALLOFFICE WHOLEBUILDING PEOPLE,SMALL OFFICE_BLDG_OCC,THERMAL ZONE 13,96.26,5.2,5.2,5.382E-002,18.581,0.300,0.700,AutoCalculate,SMALL OFFICE_ACTIVITY,No,3.8200E-008
 People Internal Gains, THERMAL ZONE 14 ASHRAE_90.1-2004 CLIMATEZONE 1-8 SMALLOFFICE WHOLEBUILDING PEOPLE,SMALL OFFICE_BLDG_OCC,THERMAL ZONE 14,38.43,2.1,2.1,5.382E-002,18.581,0.300,0.700,AutoCalculate,SMALL OFFICE_ACTIVITY,No,3.8200E-008
 People Internal Gains, THERMAL ZONE 15 ASHRAE_90.1-2004 CLIMATEZONE 1-8 SMALLOFFICE WHOLEBUILDING PEOPLE,SMALL OFFICE_BLDG_OCC,THERMAL ZONE 15,38.43,2.1,2.1,5.382E-002,18.581,0.300,0.700,AutoCalculate,SMALL OFFICE_ACTIVITY,No,3.8200E-008
 People Internal Gains, THERMAL ZONE 16 ASHRAE_90.1-2004 CLIMATEZONE 1-8 SMALLOFFICE WHOLEBUILDING PEOPLE,SMALL OFFICE_BLDG_OCC,THERMAL ZONE 16,38.43,2.1,2.1,5.382E-002,18.581,0.300,0.700,AutoCalculate,SMALL OFFICE_ACTIVITY,No,3.8200E-008
 People Internal Gains, THERMAL ZONE 17 ASHRAE_90.1-2004 CLIMATEZONE 1-8 SMALLOFFICE WHOLEBUILDING PEOPLE,SMALL OFFICE_BLDG_OCC,THERMAL ZONE 17,38.43,2.1,2.1,5.382E-002,18.581,0.300,0.700,AutoCalculate,SMALL OFFICE_ACTIVITY,No,3.8200E-008
 People Internal Gains, THERMAL ZONE 18 ASHRAE_90.1-2004 CLIMATEZONE 1-8 SMALLOFFICE WHOLEBUILDING PEOPLE,SMALL OFFICE_BLDG_OCC,THERMAL ZONE 18,96.26,5.2,5.2,5.382E-002,18.581,0.300,0.700,AutoCalculate,SMALL OFFICE_ACTIVITY,No,3.8200E-008
 People Internal Gains, THERMAL ZONE 19 ASHRAE_90.1-2004 CLIMATEZONE 1-8 SMALLOFFICE WHOLEBUILDING PEOPLE,SMALL OFFICE_BLDG_OCC,THERMAL ZONE 19,96.26,5.2,5.2,5.382E-002,18.581,0.300,0.700,AutoCalculate,SMALL OFFICE_ACTIVITY,No,3.8200E-008
 People Internal Gains, THERMAL ZONE 2 ASHRAE_90.1-2004 CLIMATEZONE 1-8 SMALLOFFICE WHOLEBUILDING PEOPLE,SMALL OFFICE_BLDG_OCC,THERMAL ZONE 2,96.26,5.2,5.2,5.382E-002,18.581,0.300,0.700,AutoCalculate,SMALL OFFICE_ACTIVITY,No,3.8200E-008
 People Internal Gains, THERMAL ZONE 20 ASHRAE_90.1-2004 CLIMATEZONE 1-8 SMALLOFFICE WHOLEBUILDING PEOPLE,SMALL OFFICE_BLDG_OCC,THERMAL ZONE 20,38.43,2.1,2.1,5.382E-002,18.581,0.300,0.700,AutoCalculate,SMALL OFFICE_ACTIVITY,No,3.8200E-008
 People Internal Gains, THERMAL ZONE 21 ASHRAE_90.1-2004 CLIMATEZONE 1-8 SMALLOFFICE WHOLEBUILDING PEOPLE,SMALL OFFICE_BLDG_OCC,THERMAL ZONE 21,38.43,2.1,2.1,5.382E-002,18.581,0.300,0.700,AutoCalculate,SMALL OFFICE_ACTIVITY,No,3.8200E-008
 People Internal Gains, THERMAL ZONE 22 ASHRAE_90.1-2004 CLIMATEZONE 1-8 SMALLOFFICE WHOLEBUILDING PEOPLE,SMALL OFFICE_BLDG_OCC,THERMAL ZONE 22,38.43,2.1,2.1,5.382E-002,18.581,0.300,0.700,AutoCalculate,SMALL OFFICE_ACTIVITY,No,3.8200E-008
 People Internal Gains, THERMAL ZONE 23 ASHRAE_90.1-2004 CLIMATEZONE 1-8 SMALLOFFICE WHOLEBUILDING PEOPLE,SMALL OFFICE_BLDG_OCC,THERMAL ZONE 23,38.43,2.1,2.1,5.382E-002,18.581,0.300,0.700,AutoCalculate,SMALL OFFICE_ACTIVITY,No,3.8200E-008
 People Internal Gains, THERMAL ZONE 24 ASHRAE_90.1-2004 CLIMATEZONE 1-8 SMALLOFFICE WHOLEBUILDING PEOPLE,SMALL OFFICE_BLDG_OCC,THERMAL ZONE 24,38.43,2.1,2.1,5.382E-002,18.581,0.300,0.700,AutoCalculate,SMALL OFFICE_ACTIVITY,No,3.8200E-008
 People Internal Gains, THERMAL ZONE 25 ASHRAE_90.1-2004 CLIMATEZONE 1-8 SMALLOFFICE WHOLEBUILDING PEOPLE,SMALL OFFICE_BLDG_OCC,THERMAL ZONE 25,38.43,2.1,2.1,5.382E-002,18.581,0.300,0.700,AutoCalculate,SMALL OFFICE_ACTIVITY,No,3.8200E-008
 People Internal Gains, THERMAL ZONE 3 ASHRAE_90.1-2004 CLIMATEZONE 1-8 SMALLOFFICE WHOLEBUILDING PEOPLE,SMALL OFFICE_BLDG_OCC,THERMAL ZONE 3,38.43,2.1,2.1,5.382E-002,18.581,0.300,0.700,AutoCalculate,SMALL OFFICE_ACTIVITY,No,3.8200E-008
 People Internal Gains, THERMAL ZONE 4 ASHRAE_90.1-2004 CLIMATEZONE 1-8 SMALLOFFICE WHOLEBUILDING PEOPLE,SMALL OFFICE_BLDG_OCC,THERMAL ZONE 4,38.43,2.1,2.1,5.382E-002,18.581,0.300,0.700,AutoCalculate,SMALL OFFICE_ACTIVITY,No,3.8200E-008
 People Internal Gains, THERMAL ZONE 5 ASHRAE_90.1-2004 CLIMATEZONE 1-8 SMALLOFFICE WHOLEBUILDING PEOPLE,SMALL OFFICE_BLDG_OCC,THERMAL ZONE 5,38.43,2.1,2.1,5.382E-002,18.581,0.300,0.700,AutoCalculate,SMALL OFFICE_ACTIVITY,No,3.8200E-008
 People Internal Gains, THERMAL ZONE 6 ASHRAE_90.1-2004 CLIMATEZONE 1-8 SMALLOFFICE WHOLEBUILDING PEOPLE,SMALL OFFICE_BLDG_OCC,THERMAL ZONE 6,38.43,2.1,2.1,5.382E-002,18.581,0.300,0.700,AutoCalculate,SMALL OFFICE_ACTIVITY,No,3.8200E-008
 People Internal Gains, THERMAL ZONE 7 ASHRAE_90.1-2004 CLIMATEZONE 1-8 SMALLOFFICE WHOLEBUILDING PEOPLE,SMALL OFFICE_BLDG_OCC,THERMAL ZONE 7,38.43,2.1,2.1,5.382E-002,18.581,0.300,0.700,AutoCalculate,SMALL OFFICE_ACTIVITY,No,3.8200E-008
 People Internal Gains, THERMAL ZONE 8 ASHRAE_90.1-2004 CLIMATEZONE 1-8 SMALLOFFICE WHOLEBUILDING PEOPLE,SMALL OFFICE_BLDG_OCC,THERMAL ZONE 8,96.26,5.2,5.2,5.382E-002,18.581,0.300,0.700,AutoCalculate,SMALL OFFICE_ACTIVITY,No,3.8200E-008
 People Internal Gains, THERMAL ZONE 9 ASHRAE_90.1-2004 CLIMATEZONE 1-8 SMALLOFFICE WHOLEBUILDING PEOPLE,SMALL OFFICE_BLDG_OCC,THERMAL ZONE 9,38.43,2.1,2.1,5.382E-002,18.581,0.300,0.700,AutoCalculate,SMALL OFFICE_ACTIVITY,No,3.8200E-008
! <Lights Internal Gains - Nominal>,Name,Schedule Name,Zone Name,Zone Floor Area {m2},# Zone Occupants,Lighting Level {W},Lights/Floor Area {W/m2},Lights per person {W/person},Fraction Return Air,Fraction Radiant,Fraction Short Wave,Fraction Convected,Fraction Replaceable,EndUse Category
 Lights Internal Gains, THERMAL ZONE 1 ASHRAE_90.1-2004 CLIMATEZONE 1-8 SMALLOFFICE WHOLEBUILDING LIGHTS,SMALL OFFICE_BLDG_LIGHT,THERMAL ZONE 1,38.43,2.1,413.702,10.764,200.000,0.000,0.000,0.000,1.000,1.000,General
 Lights Internal Gains, THERMAL ZONE 10 ASHRAE_90.1-2004 CLIMATEZONE 1-8 SMALLOFFICE WHOLEBUILDING LIGHTS,SMALL OFFICE_BLDG_LIGHT,THERMAL ZONE 10,38.43,2.1,413.702,10.764,200.000,0.000,0.000,0.000,1.000,1.000,General
 Lights Internal Gains, THERMAL ZONE 11 ASHRAE_90.1-2004 CLIMATEZONE 1-8 SMALLOFFICE WHOLEBUILDING LIGHTS,SMALL OFFICE_BLDG_LIGHT,THERMAL ZONE 11,38.43,2.1,413.702,10.764,200.000,0.000,0.000,0.000,1.000,1.000,General
 Lights Internal Gains, THERMAL ZONE 12 ASHRAE_90.1-2004 CLIMATEZONE 1-8 SMALLOFFICE WHOLEBUILDING LIGHTS,SMALL OFFICE_BLDG_LIGHT,THERMAL ZONE 12,38.43,2.1,413.702,10.764,200.000,0.000,0.000,0.000,1.000,1.000,General
 Lights Internal Gains, THERMAL ZONE 13 ASHRAE_90.1-2004 CLIMATEZONE 1-8 SMALLOFFICE WHOLEBUILDING LIGHTS,SMALL OFFICE_BLDG_LIGHT,THERMAL ZONE 13,96.26,5.2,1036.170,10.764,200.000,0.000,0.000,0.000,1.000,1.000,General
 Lights Internal Gains, THERMAL ZONE 14 ASHRAE_90.1-2004 CLIMATEZONE 1-8 SMALLOFFICE WHOLEBUILDING LIGHTS,SMALL OFFICE_BLDG_LIGHT,THERMAL ZONE 14,38.43,2.1,413.702,10.764,200.000,0.000,0.000,0.000,1.000,1.000,General
 Lights Internal Gains, THERMAL ZONE 15 ASHRAE_90.1-2004 CLIMATEZONE 1-8 SMALLOFFICE WHOLEBUILDING LIGHTS,SMALL OFFICE_BLDG_LIGHT,THERMAL ZONE 15,38.43,2.1,413.702,10.764,200.000,0.000,0.000,0.000,1.000,1.000,General
 Lights Internal Gains, THERMAL ZONE 16 ASHRAE_90.1-2004 CLIMATEZONE 1-8 SMALLOFFICE WHOLEBUILDING LIGHTS,SMALL OFFICE_BLDG_LIGHT,THERMAL ZONE 16,38.43,2.1,413.702,10.764,200.000,0.000,0.000,0.000,1.000,1.000,General
 Lights Internal Gains, THERMAL ZONE 17 ASHRAE_90.1-2004 CLIMATEZONE 1-8 SMALLOFFICE WHOLEBUILDING LIGHTS,SMALL OFFICE_BLDG_LIGHT,THERMAL ZONE 17,38.43,2.1,413.702,10.764,200.000,0.000,0.000,0.000,1.000,1.000,General
 Lights Internal Gains, THERMAL ZONE 18 ASHRAE_90.1-2004 CLIMATEZONE 1-8 SMALLOFFICE WHOLEBUILDING LIGHTS,SMALL OFFICE_BLDG_LIGHT,THERMAL ZONE 18,96.26,5.2,1036.170,10.764,200.000,0.000,0.000,0.000,1.000,1.000,General
 Lights Internal Gains, THERMAL ZONE 19 ASHRAE_90.1-2004 CLIMATEZONE 1-8 SMALLOFFICE WHOLEBUILDING LIGHTS,SMALL OFFICE_BLDG_LIGHT,THERMAL ZONE 19,96.26,5.2,1036.170,10.764,200.000,0.000,0.000,0.000,1.000,1.000,General
 Lights Internal Gains, THERMAL ZONE 2 ASHRAE_90.1-2004 CLIMATEZONE 1-8 SMALLOFFICE WHOLEBUILDING LIGHTS,SMALL OFFICE_BLDG_LIGHT,THERMAL ZONE 2,96.26,5.2,1036.170,10.764,200.000,0.000,0.000,0.000,1.000,1.000,General
 Lights Internal Gains, THERMAL ZONE 20 ASHRAE_90.1-2004 CLIMATEZONE 1-8 SMALLOFFICE WHOLEBUILDING LIGHTS,SMALL OFFICE_BLDG_LIGHT,THERMAL ZONE 20,38.43,2.1,413.702,10.764,200.000,0.000,0.000,0.000,1.000,1.000,General
 Lights Internal Gains, THERMAL ZONE 21 ASHRAE_90.1-2004 CLIMATEZONE 1-8 SMALLOFFICE WHOLEBUILDING LIGHTS,SMALL OFFICE_BLDG_LIGHT,THERMAL ZONE 21,38.43,2.1,413.702,10.764,200.000,0.000,0.000,0.000,1.000,1.000,General
 Lights Internal Gains, THERMAL ZONE 22 ASHRAE_90.1-2004 CLIMATEZONE 1-8 SMALLOFFICE WHOLEBUILDING LIGHTS,SMALL OFFICE_BLDG_LIGHT,THERMAL ZONE 22,38.43,2.1,413.702,10.764,200.000,0.000,0.000,0.000,1.000,1.000,General
 Lights Internal Gains, THERMAL ZONE 23 ASHRAE_90.1-2004 CLIMATEZONE 1-8 SMALLOFFICE WHOLEBUILDING LIGHTS,SMALL OFFICE_BLDG_LIGHT,THERMAL ZONE 23,38.43,2.1,413.702,10.764,200.000,0.000,0.000,0.000,1.000,1.000,General
 Lights Internal Gains, THERMAL ZONE 24 ASHRAE_90.1-2004 CLIMATEZONE 1-8 SMALLOFFICE WHOLEBUILDING LIGHTS,SMALL OFFICE_BLDG_LIGHT,THERMAL ZONE 24,38.43,2.1,413.702,10.764,200.000,0.000,0.000,0.000,1.000,1.000,General
 Lights Internal Gains, THERMAL ZONE 25 ASHRAE_90.1-2004 CLIMATEZONE 1-8 SMALLOFFICE WHOLEBUILDING LIGHTS,SMALL OFFICE_BLDG_LIGHT,THERMAL ZONE 25,38.43,2.1,413.702,10.764,200.000,0.000,0.000,0.000,1.000,1.000,General
 Lights Internal Gains, THERMAL ZONE 3 ASHRAE_90.1-2004 CLIMATEZONE 1-8 SMALLOFFICE WHOLEBUILDING LIGHTS,SMALL OFFICE_BLDG_LIGHT,THERMAL ZONE 3,38.43,2.1,413.702,10.764,200.000,0.000,0.000,0.000,1.000,1.000,General
 Lights Internal Gains, THERMAL ZONE 4 ASHRAE_90.1-2004 CLIMATEZONE 1-8 SMALLOFFICE WHOLEBUILDING LIGHTS,SMALL OFFICE_BLDG_LIGHT,THERMAL ZONE 4,38.43,2.1,413.702,10.764,200.000,0.000,0.000,0.000,1.000,1.000,General
 Lights Internal Gains, THERMAL ZONE 5 ASHRAE_90.1-2004 CLIMATEZONE 1-8 SMALLOFFICE WHOLEBUILDING LIGHTS,SMALL OFFICE_BLDG_LIGHT,THERMAL ZONE 5,38.43,2.1,413.702,10.764,200.000,0.000,0.000,0.000,1.000,1.000,General
 Lights Internal Gains, THERMAL ZONE 6 ASHRAE_90.1-2004 CLIMATEZONE 1-8 SMALLOFFICE WHOLEBUILDING LIGHTS,SMALL OFFICE_BLDG_LIGHT,THERMAL ZONE 6,38.43,2.1,413.702,10.764,200.000,0.000,0.000,0.000,1.000,1.000,General
 Lights Internal Gains, THERMAL ZONE 7 ASHRAE_90.1-2004 CLIMATEZONE 1-8 SMALLOFFICE WHOLEBUILDING LIGHTS,SMALL OFFICE_BLDG_LIGHT,THERMAL ZONE 7,38.43,2.1,413.702,10.764,200.000,0.000,0.000,0.000,1.000,1.000,General
 Lights Internal Gains, THERMAL ZONE 8 ASHRAE_90.1-2004 CLIMATEZONE 1-8 SMALLOFFICE WHOLEBUILDING LIGHTS,SMALL OFFICE_BLDG_LIGHT,THERMAL ZONE 8,96.26,5.2,1036.170,10.764,200.000,0.000,0.000,0.000,1.000,1.000,General
 Lights Internal Gains, THERMAL ZONE 9 ASHRAE_90.1-2004 CLIMATEZONE 1-8 SMALLOFFICE WHOLEBUILDING LIGHTS,SMALL OFFICE_BLDG_LIGHT,THERMAL ZONE 9,38.43,2.1,413.702,10.764,200.000,0.000,0.000,0.000,1.000,1.000,General
! <ElectricEquipment Internal Gains - Nominal>,Name,Schedule Name,Zone Name,Zone Floor Area {m2},# Zone Occupants,Equipment Level {W},Equipment/Floor Area {W/m2},Equipment per person {W/person},Fraction Latent,Fraction Radiant,Fraction Lost,Fraction Convected,EndUse SubCategory
 ElectricEquipment Internal Gains, THERMAL ZONE 1 ASHRAE_90.1-2004 CLIMATEZONE 1-8 SMALLOFFICE WHOLEBUILDING ELECTRIC EQUIPMENT,SMALL OFFICE_BLDG_EQUIP,THERMAL ZONE 1,38.43,2.1,413.702,10.764,200.000,0.000,0.000,0.000,1.000,General
 ElectricEquipment Internal Gains, THERMAL ZONE 10 ASHRAE_90.1-2004 CLIMATEZONE 1-8 SMALLOFFICE WHOLEBUILDING ELECTRIC EQUIPMENT,SMALL OFFICE_BLDG_EQUIP,THERMAL ZONE 10,38.43,2.1,413.702,10.764,200.000,0.000,0.000,0.000,1.000,General
 ElectricEquipment Internal Gains, THERMAL ZONE 11 ASHRAE_90.1-2004 CLIMATEZONE 1-8 SMALLOFFICE WHOLEBUILDING ELECTRIC EQUIPMENT,SMALL OFFICE_BLDG_EQUIP,THERMAL ZONE 11,38.43,2.1,413.702,10.764,200.000,0.000,0.000,0.000,1.000,General
 ElectricEquipment Internal Gains, THERMAL ZONE 12 ASHRAE_90.1-2004 CLIMATEZONE 1-8 SMALLOFFICE WHOLEBUILDING ELECTRIC EQUIPMENT,SMALL OFFICE_BLDG_EQUIP,THERMAL ZONE 12,38.43,2.1,413.702,10.764,200.000,0.000,0.000,0.000,1.000,General
 ElectricEquipment Internal Gains, THERMAL ZONE 13 ASHRAE_90.1-2004 CLIMATEZONE 1-8 SMALLOFFICE WHOLEBUILDING ELECTRIC EQUIPMENT,SMALL OFFICE_BLDG_EQUIP,THERMAL ZONE 13,96.26,5.2,1036.170,10.764,200.000,0.000,0.000,0.000,1.000,General
 ElectricEquipment Internal Gains, THERMAL ZONE 14 ASHRAE_90.1-2004 CLIMATEZONE 1-8 SMALLOFFICE WHOLEBUILDING ELECTRIC EQUIPMENT,SMALL OFFICE_BLDG_EQUIP,THERMAL ZONE 14,38.43,2.1,413.702,10.764,200.000,0.000,0.000,0.000,1.000,General
 ElectricEquipment Internal Gains, THERMAL ZONE 15 ASHRAE_90.1-2004 CLIMATEZONE 1-8 SMALLOFFICE WHOLEBUILDING ELECTRIC EQUIPMENT,SMALL OFFICE_BLDG_EQUIP,THERMAL ZONE 15,38.43,2.1,413.702,10.764,200.000,0.000,0.000,0.000,1.000,General
 ElectricEquipment Internal Gains, THERMAL ZONE 16 ASHRAE_90.1-2004 CLIMATEZONE 1-8 SMALLOFFICE WHOLEBUILDING ELECTRIC EQUIPMENT,SMALL OFFICE_BLDG_EQUIP,THERMAL ZONE 16,38.43,2.1,413.702,10.764,200.000,0.000,0.000,0.000,1.000,General
 ElectricEquipment Internal Gains, THERMAL ZONE 17 ASHRAE_90.1-2004 CLIMATEZONE 1-8 SMALLOFFICE WHOLEBUILDING ELECTRIC EQUIPMENT,SMALL OFFICE_BLDG_EQUIP,THERMAL ZONE 17,38.43,2.1,413.702,10.764,200.000,0.000,0.000,0.000,1.000,General
 ElectricEquipment Internal Gains, THERMAL ZONE 18 ASHRAE_90.1-2004 CLIMATEZONE 1-8 SMALLOFFICE WHOLEBUILDING ELECTRIC EQUIPMENT,SMALL OFFICE_BLDG_EQUIP,THERMAL ZONE 18,96.26,5.2,1036.170,10.764,200.000,0.000,0.000,0.000,1.000,General
 ElectricEquipment Internal Gains, THERMAL ZONE 19 ASHRAE_90.1-2004 CLIMATEZONE 1-8 SMALLOFFICE WHOLEBUILDING ELECTRIC EQUIPMENT,SMALL OFFICE_BLDG_EQUIP,THERMAL ZONE 19,96.26,5.2,1036.170,10.764,200.000,0.000,0.000,0.000,1.000,General
 ElectricEquipment Internal Gains, THERMAL ZONE 2 ASHRAE_90.1-2004 CLIMATEZONE 1-8 SMALLOFFICE WHOLEBUILDING ELECTRIC EQUIPMENT,SMALL OFFICE_BLDG_EQUIP,THERMAL ZONE 2,96.26,5.2,1036.170,10.764,200.000,0.000,0.000,0.000,1.000,General
 ElectricEquipment Internal Gains, THERMAL ZONE 20 ASHRAE_90.1-2004 CLIMATEZONE 1-8 SMALLOFFICE WHOLEBUILDING ELECTRIC EQUIPMENT,SMALL OFFICE_BLDG_EQUIP,THERMAL ZONE 20,38.43,2.1,413.702,10.764,200.000,0.000,0.000,0.000,1.000,General
 ElectricEquipment Internal Gains, THERMAL ZONE 21 ASHRAE_90.1-2004 CLIMATEZONE 1-8 SMALLOFFICE WHOLEBUILDING ELECTRIC EQUIPMENT,SMALL OFFICE_BLDG_EQUIP,THERMAL ZONE 21,38.43,2.1,413.702,10.764,200.000,0.000,0.000,0.000,1.000,General
 ElectricEquipment Internal Gains, THERMAL ZONE 22 ASHRAE_90.1-2004 CLIMATEZONE 1-8 SMALLOFFICE WHOLEBUILDING ELECTRIC EQUIPMENT,SMALL OFFICE_BLDG_EQUIP,THERMAL ZONE 22,38.43,2.1,413.702,10.764,200.000,0.000,0.000,0.000,1.000,General
 ElectricEquipment Internal Gains, THERMAL ZONE 23 ASHRAE_90.1-2004 CLIMATEZONE 1-8 SMALLOFFICE WHOLEBUILDING ELECTRIC EQUIPMENT,SMALL OFFICE_BLDG_EQUIP,THERMAL ZONE 23,38.43,2.1,413.702,10.764,200.000,0.000,0.000,0.000,1.000,General
 ElectricEquipment Internal Gains, THERMAL ZONE 24 ASHRAE_90.1-2004 CLIMATEZONE 1-8 SMALLOFFICE WHOLEBUILDING ELECTRIC EQUIPMENT,SMALL OFFICE_BLDG_EQUIP,THERMAL ZONE 24,38.43,2.1,413.702,10.764,200.000,0.000,0.000,0.000,1.000,General
 ElectricEquipment Internal Gains, THERMAL ZONE 25 ASHRAE_90.1-2004 CLIMATEZONE 1-8 SMALLOFFICE WHOLEBUILDING ELECTRIC EQUIPMENT,SMALL OFFICE_BLDG_EQUIP,THERMAL ZONE 25,38.43,2.1,413.702,10.764,200.000,0.000,0.000,0.000,1.000,General
 ElectricEquipment Internal Gains, THERMAL ZONE 3 ASHRAE_90.1-2004 CLIMATEZONE 1-8 SMALLOFFICE WHOLEBUILDING ELECTRIC EQUIPMENT,SMALL OFFICE_BLDG_EQUIP,THERMAL ZONE 3,38.43,2.1,413.702,10.764,200.000,0.000,0.000,0.000,1.000,General
 ElectricEquipment Internal Gains, THERMAL ZONE 4 ASHRAE_90.1-2004 CLIMATEZONE 1-8 SMALLOFFICE WHOLEBUILDING ELECTRIC EQUIPMENT,SMALL OFFICE_BLDG_EQUIP,THERMAL ZONE 4,38.43,2.1,413.702,10.764,200.000,0.000,0.000,0.000,1.000,General
 ElectricEquipment Internal Gains, THERMAL ZONE 5 ASHRAE_90.1-2004 CLIMATEZONE 1-8 SMALLOFFICE WHOLEBUILDING ELECTRIC EQUIPMENT,SMALL OFFICE_BLDG_EQUIP,THERMAL ZONE 5,38.43,2.1,413.702,10.764,200.000,0.000,0.000,0.000,1.000,General
 ElectricEquipment Internal Gains, THERMAL ZONE 6 ASHRAE_90.1-2004 CLIMATEZONE 1-8 SMALLOFFICE WHOLEBUILDING ELECTRIC EQUIPMENT,SMALL OFFICE_BLDG_EQUIP,THERMAL ZONE 6,38.43,2.1,413.702,10.764,200.000,0.000,0.000,0.000,1.000,General
 ElectricEquipment Internal Gains, THERMAL ZONE 7 ASHRAE_90.1-2004 CLIMATEZONE 1-8 SMALLOFFICE WHOLEBUILDING ELECTRIC EQUIPMENT,SMALL OFFICE_BLDG_EQUIP,THERMAL ZONE 7,38.43,2.1,413.702,10.764,200.000,0.000,0.000,0.000,1.000,General
 ElectricEquipment Internal Gains, THERMAL ZONE 8 ASHRAE_90.1-2004 CLIMATEZONE 1-8 SMALLOFFICE WHOLEBUILDING ELECTRIC EQUIPMENT,SMALL OFFICE_BLDG_EQUIP,THERMAL ZONE 8,96.26,5.2,1036.170,10.764,200.000,0.000,0.000,0.000,1.000,General
 ElectricEquipment Internal Gains, THERMAL ZONE 9 ASHRAE_90.1-2004 CLIMATEZONE 1-8 SMALLOFFICE WHOLEBUILDING ELECTRIC EQUIPMENT,SMALL OFFICE_BLDG_EQUIP,THERMAL ZONE 9,38.43,2.1,413.702,10.764,200.000,0.000,0.000,0.000,1.000,General
! <Shadowing/Sun Position Calculations> [Annual Simulations], Value {days}, Allowable Number Figures in Shadow Overlap {}, Polygon Clipping Algorithm, Sky Diffuse Modeling Algorithm
Shadowing/Sun Position Calculations,20,15000,SutherlandHodgman,SimpleSkyDiffuseModeling
! <Infiltration Airflow Stats - Nominal>,Name,Schedule Name,Zone Name, Zone Floor Area {m2}, # Zone Occupants,Design Volume Flow Rate {m3/s},Volume Flow Rate/Floor Area {m3/s/m2},Volume Flow Rate/Exterior Surface Area {m3/s/m2},ACH - Air Changes per Hour,Equation A - Constant Term Coefficient {},Equation B - Temperature Term Coefficient {1/C},Equation C - Velocity Term Coefficient {s/m}, Equation D - Velocity Squared Term Coefficient {s2/m2}
 ZoneInfiltration Airflow Stats, THERMAL ZONE 1 ASHRAE_90.1-2004 CLIMATEZONE 1-8 SMALLOFFICE WHOLEBUILDING INFILTRATION,SMALL OFFICE_INFIL_QUARTER_ON,THERMAL ZONE 1,38.43,2.1,1.912E-002,4.974E-004,3.023E-004,0.448,1.000,0.000,0.000,0.000
 ZoneInfiltration Airflow Stats, THERMAL ZONE 10 ASHRAE_90.1-2004 CLIMATEZONE 1-8 SMALLOFFICE WHOLEBUILDING INFILTRATION,SMALL OFFICE_INFIL_QUARTER_ON,THERMAL ZONE 10,38.43,2.1,1.912E-002,4.974E-004,3.023E-004,0.448,1.000,0.000,0.000,0.000
 ZoneInfiltration Airflow Stats, THERMAL ZONE 11 ASHRAE_90.1-2004 CLIMATEZONE 1-8 SMALLOFFICE WHOLEBUILDING INFILTRATION,SMALL OFFICE_INFIL_QUARTER_ON,THERMAL ZONE 11,38.43,2.1,3.073E-002,7.996E-004,3.023E-004,0.720,1.000,0.000,0.000,0.000
 ZoneInfiltration Airflow Stats, THERMAL ZONE 12 ASHRAE_90.1-2004 CLIMATEZONE 1-8 SMALLOFFICE WHOLEBUILDING INFILTRATION,SMALL OFFICE_INFIL_QUARTER_ON,THERMAL ZONE 12,38.43,2.1,3.073E-002,7.996E-004,3.023E-004,0.720,1.000,0.000,0.000,0.000
 ZoneInfiltration Airflow Stats, THERMAL ZONE 13 ASHRAE_90.1-2004 CLIMATEZONE 1-8 SMALLOFFICE WHOLEBUILDING INFILTRATION,SMALL OFFICE_INFIL_QUARTER_ON,THERMAL ZONE 13,96.26,5.2,0.000,0.000,N/A,0.000,1.000,0.000,0.000,0.000
 ZoneInfiltration Airflow Stats, THERMAL ZONE 14 ASHRAE_90.1-2004 CLIMATEZONE 1-8 SMALLOFFICE WHOLEBUILDING INFILTRATION,SMALL OFFICE_INFIL_QUARTER_ON,THERMAL ZONE 14,38.43,2.1,1.912E-002,4.974E-004,3.023E-004,0.448,1.000,0.000,0.000,0.000
 ZoneInfiltration Airflow Stats, THERMAL ZONE 15 ASHRAE_90.1-2004 CLIMATEZONE 1-8 SMALLOFFICE WHOLEBUILDING INFILTRATION,SMALL OFFICE_INFIL_QUARTER_ON,THERMAL ZONE 15,38.43,2.1,1.912E-002,4.974E-004,3.023E-004,0.448,1.000,0.000,0.000,0.000
 ZoneInfiltration Airflow Stats, THERMAL ZONE 16 ASHRAE_90.1-2004 CLIMATEZONE 1-8 SMALLOFFICE WHOLEBUILDING INFILTRATION,SMALL OFFICE_INFIL_QUARTER_ON,THERMAL ZONE 16,38.43,2.1,1.912E-002,4.974E-004,3.023E-004,0.448,1.000,0.000,0.000,0.000
 ZoneInfiltration Airflow Stats, THERMAL ZONE 17 ASHRAE_90.1-2004 CLIMATEZONE 1-8 SMALLOFFICE WHOLEBUILDING INFILTRATION,SMALL OFFICE_INFIL_QUARTER_ON,THERMAL ZONE 17,38.43,2.1,1.912E-002,4.974E-004,3.023E-004,0.448,1.000,0.000,0.000,0.000
 ZoneInfiltration Airflow Stats, THERMAL ZONE 18 ASHRAE_90.1-2004 CLIMATEZONE 1-8 SMALLOFFICE WHOLEBUILDING INFILTRATION,SMALL OFFICE_INFIL_QUARTER_ON,THERMAL ZONE 18,96.26,5.2,2.910E-002,3.023E-004,3.023E-004,0.272,1.000,0.000,0.000,0.000
 ZoneInfiltration Airflow Stats, THERMAL ZONE 19 ASHRAE_90.1-2004 CLIMATEZONE 1-8 SMALLOFFICE WHOLEBUILDING INFILTRATION,SMALL OFFICE_INFIL_QUARTER_ON,THERMAL ZONE 19,96.26,5.2,0.000,0.000,N/A,0.000,1.000,0.000,0.000,0.000
 ZoneInfiltration Airflow Stats, THERMAL ZONE 2 ASHRAE_90.1-2004 CLIMATEZONE 1-8 SMALLOFFICE WHOLEBUILDING INFILTRATION,SMALL OFFICE_INFIL_QUARTER_ON,THERMAL ZONE 2,96.26,5.2,0.000,0.000,N/A,0.000,1.000,0.000,0.000,0.000
 ZoneInfiltration Airflow Stats, THERMAL ZONE 20 ASHRAE_90.1-2004 CLIMATEZONE 1-8 SMALLOFFICE WHOLEBUILDING INFILTRATION,SMALL OFFICE_INFIL_QUARTER_ON,THERMAL ZONE 20,38.43,2.1,1.912E-002,4.974E-004,3.023E-004,0.448,1.000,0.000,0.000,0.000
 ZoneInfiltration Airflow Stats, THERMAL ZONE 21 ASHRAE_90.1-2004 CLIMATEZONE 1-8 SMALLOFFICE WHOLEBUILDING INFILTRATION,SMALL OFFICE_INFIL_QUARTER_ON,THERMAL ZONE 21,38.43,2.1,1.912E-002,4.974E-004,3.023E-004,0.448,1.000,0.000,0.000,0.000
 ZoneInfiltration Airflow Stats, THERMAL ZONE 22 ASHRAE_90.1-2004 CLIMATEZONE 1-8 SMALLOFFICE WHOLEBUILDING INFILTRATION,SMALL OFFICE_INFIL_QUARTER_ON,THERMAL ZONE 22,38.43,2.1,3.073E-002,7.996E-004,3.023E-004,0.720,1.000,0.000,0.000,0.000
 ZoneInfiltration Airflow Stats, THERMAL ZONE 23 ASHRAE_90.1-2004 CLIMATEZONE 1-8 SMALLOFFICE WHOLEBUILDING INFILTRATION,SMALL OFFICE_INFIL_QUARTER_ON,THERMAL ZONE 23,38.43,2.1,1.912E-002,4.974E-004,3.023E-004,0.448,1.000,0.000,0.000,0.000
 ZoneInfiltration Airflow Stats, THERMAL ZONE 24 ASHRAE_90.1-2004 CLIMATEZONE 1-8 SMALLOFFICE WHOLEBUILDING INFILTRATION,SMALL OFFICE_INFIL_QUARTER_ON,THERMAL ZONE 24,38.43,2.1,1.912E-002,4.974E-004,3.023E-004,0.448,1.000,0.000,0.000,0.000
 ZoneInfiltration Airflow Stats, THERMAL ZONE 25 ASHRAE_90.1-2004 CLIMATEZONE 1-8 SMALLOFFICE WHOLEBUILDING INFILTRATION,SMALL OFFICE_INFIL_QUARTER_ON,THERMAL ZONE 25,38.43,2.1,1.912E-002,4.974E-004,3.023E-004,0.448,1.000,0.000,0.000,0.000
 ZoneInfiltration Airflow Stats, THERMAL ZONE 3 ASHRAE_90.1-2004 CLIMATEZONE 1-8 SMALLOFFICE WHOLEBUILDING INFILTRATION,SMALL OFFICE_INFIL_QUARTER_ON,THERMAL ZONE 3,38.43,2.1,1.912E-002,4.974E-004,3.023E-004,0.448,1.000,0.000,0.000,0.000
 ZoneInfiltration Airflow Stats, THERMAL ZONE 4 ASHRAE_90.1-2004 CLIMATEZONE 1-8 SMALLOFFICE WHOLEBUILDING INFILTRATION,SMALL OFFICE_INFIL_QUARTER_ON,THERMAL ZONE 4,38.43,2.1,1.912E-002,4.974E-004,3.023E-004,0.448,1.000,0.000,0.000,0.000
 ZoneInfiltration Airflow Stats, THERMAL ZONE 5 ASHRAE_90.1-2004 CLIMATEZONE 1-8 SMALLOFFICE WHOLEBUILDING INFILTRATION,SMALL OFFICE_INFIL_QUARTER_ON,THERMAL ZONE 5,38.43,2.1,1.912E-002,4.974E-004,3.023E-004,0.448,1.000,0.000,0.000,0.000
 ZoneInfiltration Airflow Stats, THERMAL ZONE 6 ASHRAE_90.1-2004 CLIMATEZONE 1-8 SMALLOFFICE WHOLEBUILDING INFILTRATION,SMALL OFFICE_INFIL_QUARTER_ON,THERMAL ZONE 6,38.43,2.1,1.912E-002,4.974E-004,3.023E-004,0.448,1.000,0.000,0.000,0.000
 ZoneInfiltration Airflow Stats, THERMAL ZONE 7 ASHRAE_90.1-2004 CLIMATEZONE 1-8 SMALLOFFICE WHOLEBUILDING INFILTRATION,SMALL OFFICE_INFIL_QUARTER_ON,THERMAL ZONE 7,38.43,2.1,3.073E-002,7.996E-004,3.023E-004,0.720,1.000,0.000,0.000,0.000
 ZoneInfiltration Airflow Stats, THERMAL ZONE 8 ASHRAE_90.1-2004 CLIMATEZONE 1-8 SMALLOFFICE WHOLEBUILDING INFILTRATION,SMALL OFFICE_INFIL_QUARTER_ON,THERMAL ZONE 8,96.26,5.2,0.000,0.000,N/A,0.000,1.000,0.000,0.000,0.000
 ZoneInfiltration Airflow Stats, THERMAL ZONE 9 ASHRAE_90.1-2004 CLIMATEZONE 1-8 SMALLOFFICE WHOLEBUILDING INFILTRATION,SMALL OFFICE_INFIL_QUARTER_ON,THERMAL ZONE 9,38.43,2.1,1.912E-002,4.974E-004,3.023E-004,0.448,1.000,0.000,0.000,0.000
! <AirFlow Model>, Simple
 AirFlow Model, Simple
! <RoomAir Model>, Zone Name, Mixing/Mundt/UCSDDV/UCSDCV/UCSDUFI/UCSDUFE/User Defined
RoomAir Model,THERMAL ZONE 19,Mixing/Well-Stirred
RoomAir Model,THERMAL ZONE 16,Mixing/Well-Stirred
RoomAir Model,THERMAL ZONE 25,Mixing/Well-Stirred
RoomAir Model,THERMAL ZONE 22,Mixing/Well-Stirred
RoomAir Model,THERMAL ZONE 10,Mixing/Well-Stirred
RoomAir Model,THERMAL ZONE 6,Mixing/Well-Stirred
RoomAir Model,THERMAL ZONE 21,Mixing/Well-Stirred
RoomAir Model,THERMAL ZONE 24,Mixing/Well-Stirred
RoomAir Model,THERMAL ZONE 17,Mixing/Well-Stirred
RoomAir Model,THERMAL ZONE 15,Mixing/Well-Stirred
RoomAir Model,THERMAL ZONE 1,Mixing/Well-Stirred
RoomAir Model,THERMAL ZONE 7,Mixing/Well-Stirred
RoomAir Model,THERMAL ZONE 5,Mixing/Well-Stirred
RoomAir Model,THERMAL ZONE 23,Mixing/Well-Stirred
RoomAir Model,THERMAL ZONE 4,Mixing/Well-Stirred
RoomAir Model,THERMAL ZONE 14,Mixing/Well-Stirred
RoomAir Model,THERMAL ZONE 8,Mixing/Well-Stirred
RoomAir Model,THERMAL ZONE 13,Mixing/Well-Stirred
RoomAir Model,THERMAL ZONE 20,Mixing/Well-Stirred
RoomAir Model,THERMAL ZONE 9,Mixing/Well-Stirred
RoomAir Model,THERMAL ZONE 2,Mixing/Well-Stirred
RoomAir Model,THERMAL ZONE 11,Mixing/Well-Stirred
RoomAir Model,THERMAL ZONE 12,Mixing/Well-Stirred
RoomAir Model,THERMAL ZONE 3,Mixing/Well-Stirred
RoomAir Model,THERMAL ZONE 18,Mixing/Well-Stirred
! <AirflowNetwork Model:Control>, No Multizone or Distribution/Multizone with Distribution/Multizone without Distribution/Multizone with Distribution only during Fan Operation
AirflowNetwork Model:Control,NoMultizoneOrDistribution
! <Zone Volume Capacitance Multiplier>, Sensible Heat Capacity Multiplier, Moisture Capacity Multiplier, Carbon Dioxide Capacity Multiplier, Generic Contaminant Capacity Multiplier
Zone Volume Capacitance Multiplier,   1.000 ,   1.000,   1.000,   1.000
! <Load Timesteps in Zone Design Calculation Averaging Window>, Value
 Load Timesteps in Zone Design Calculation Averaging Window,    4
! <Heating Sizing Factor Information>, Sizing Factor ID, Value
 Heating Sizing Factor Information, Global,   1.2500    
 Heating Sizing Factor Information, Zone THERMAL ZONE 19,   1.2500    
 Heating Sizing Factor Information, Zone THERMAL ZONE 16,   1.2500    
 Heating Sizing Factor Information, Zone THERMAL ZONE 25,   1.2500    
 Heating Sizing Factor Information, Zone THERMAL ZONE 22,   1.2500    
 Heating Sizing Factor Information, Zone THERMAL ZONE 10,   1.2500    
 Heating Sizing Factor Information, Zone THERMAL ZONE 6,   1.2500    
 Heating Sizing Factor Information, Zone THERMAL ZONE 21,   1.2500    
 Heating Sizing Factor Information, Zone THERMAL ZONE 24,   1.2500    
 Heating Sizing Factor Information, Zone THERMAL ZONE 17,   1.2500    
 Heating Sizing Factor Information, Zone THERMAL ZONE 15,   1.2500    
 Heating Sizing Factor Information, Zone THERMAL ZONE 1,   1.2500    
 Heating Sizing Factor Information, Zone THERMAL ZONE 7,   1.2500    
 Heating Sizing Factor Information, Zone THERMAL ZONE 5,   1.2500    
 Heating Sizing Factor Information, Zone THERMAL ZONE 23,   1.2500    
 Heating Sizing Factor Information, Zone THERMAL ZONE 4,   1.2500    
 Heating Sizing Factor Information, Zone THERMAL ZONE 14,   1.2500    
 Heating Sizing Factor Information, Zone THERMAL ZONE 8,   1.2500    
 Heating Sizing Factor Information, Zone THERMAL ZONE 13,   1.2500    
 Heating Sizing Factor Information, Zone THERMAL ZONE 20,   1.2500    
 Heating Sizing Factor Information, Zone THERMAL ZONE 9,   1.2500    
 Heating Sizing Factor Information, Zone THERMAL ZONE 2,   1.2500    
 Heating Sizing Factor Information, Zone THERMAL ZONE 11,   1.2500    
 Heating Sizing Factor Information, Zone THERMAL ZONE 12,   1.2500    
 Heating Sizing Factor Information, Zone THERMAL ZONE 3,   1.2500    
 Heating Sizing Factor Information, Zone THERMAL ZONE 18,   1.2500    
! <Cooling Sizing Factor Information>, Sizing Factor ID, Value
 Cooling Sizing Factor Information, Global,   1.1500    
 Cooling Sizing Factor Information, Zone THERMAL ZONE 19,   1.1500    
 Cooling Sizing Factor Information, Zone THERMAL ZONE 16,   1.1500    
 Cooling Sizing Factor Information, Zone THERMAL ZONE 25,   1.1500    
 Cooling Sizing Factor Information, Zone THERMAL ZONE 22,   1.1500    
 Cooling Sizing Factor Information, Zone THERMAL ZONE 10,   1.1500    
 Cooling Sizing Factor Information, Zone THERMAL ZONE 6,   1.1500    
 Cooling Sizing Factor Information, Zone THERMAL ZONE 21,   1.1500    
 Cooling Sizing Factor Information, Zone THERMAL ZONE 24,   1.1500    
 Cooling Sizing Factor Information, Zone THERMAL ZONE 17,   1.1500    
 Cooling Sizing Factor Information, Zone THERMAL ZONE 15,   1.1500    
 Cooling Sizing Factor Information, Zone THERMAL ZONE 1,   1.1500    
 Cooling Sizing Factor Information, Zone THERMAL ZONE 7,   1.1500    
 Cooling Sizing Factor Information, Zone THERMAL ZONE 5,   1.1500    
 Cooling Sizing Factor Information, Zone THERMAL ZONE 23,   1.1500    
 Cooling Sizing Factor Information, Zone THERMAL ZONE 4,   1.1500    
 Cooling Sizing Factor Information, Zone THERMAL ZONE 14,   1.1500    
 Cooling Sizing Factor Information, Zone THERMAL ZONE 8,   1.1500    
 Cooling Sizing Factor Information, Zone THERMAL ZONE 13,   1.1500    
 Cooling Sizing Factor Information, Zone THERMAL ZONE 20,   1.1500    
 Cooling Sizing Factor Information, Zone THERMAL ZONE 9,   1.1500    
 Cooling Sizing Factor Information, Zone THERMAL ZONE 2,   1.1500    
 Cooling Sizing Factor Information, Zone THERMAL ZONE 11,   1.1500    
 Cooling Sizing Factor Information, Zone THERMAL ZONE 12,   1.1500    
 Cooling Sizing Factor Information, Zone THERMAL ZONE 3,   1.1500    
 Cooling Sizing Factor Information, Zone THERMAL ZONE 18,   1.1500    
! <Zone Sizing Information>, Zone Name, Load Type, Calc Des Load {W}, User Des Load {W}, Calc Des Air Flow Rate {m3/s}, User Des Air Flow Rate {m3/s}, Design Day Name, Date/Time of Peak, Temperature at Peak {C}, Humidity Ratio at Peak {kgWater/kgDryAir}, Floor Area {m2}, # Occupants, Calc Outdoor Air Flow Rate {m3/s}
 Zone Sizing Information, THERMAL ZONE 19, Cooling, 1438.48724, 1654.26033, 8.36289E-002, 9.61733E-002, PHILADELPHIA INTERNATIONAL AP ANN CLG .4% CONDNS DB=>MWB, 7/21 16:30:00, 33.06000, 1.48422E-002, 96.26334, 5.18085, 4.89018E-002
 Zone Sizing Information, THERMAL ZONE 19, Heating, 1215.23015, 1519.03768, 6.18623E-002, 7.73279E-002, PHILADELPHIA INTERNATIONAL AP ANN HTG 99.6% CONDNS DB, 1/21 06:45:00, -10.80000, 1.48961E-003, 96.26334, 5.18085, 4.89018E-002
 Zone Sizing Information, THERMAL ZONE 16, Cooling, 3444.87784, 3961.60952, 0.20027, 0.23032, PHILADELPHIA INTERNATIONAL AP ANN CLG .4% CONDNS DB=>MWB, 7/21 17:15:00, 32.44900, 1.48422E-002, 38.43416, 2.06851, 1.95246E-002
 Zone Sizing Information, THERMAL ZONE 16, Heating, 2562.88284, 3203.60355, 0.13042, 0.16303, PHILADELPHIA INTERNATIONAL AP ANN HTG 99.6% CONDNS DB, 1/21 06:00:00, -10.80000, 1.48961E-003, 38.43416, 2.06851, 1.95246E-002
 Zone Sizing Information, THERMAL ZONE 25, Cooling, 1805.82840, 2076.70266, 0.10499, 0.12074, PHILADELPHIA INTERNATIONAL AP ANN CLG .4% CONDNS DB=>MWB, 7/21 18:15:00, 31.39150, 1.48422E-002, 38.43416, 2.06851, 1.95246E-002
 Zone Sizing Information, THERMAL ZONE 25, Heating, 2584.16040, 3230.20050, 0.13150, 0.16438, PHILADELPHIA INTERNATIONAL AP ANN HTG 99.6% CONDNS DB, 1/21 06:00:00, -10.80000, 1.48961E-003, 38.43416, 2.06851, 1.95246E-002
 Zone Sizing Information, THERMAL ZONE 22, Cooling, 3069.98448, 3530.48216, 0.17849, 0.20526, PHILADELPHIA INTERNATIONAL AP ANN CLG .4% CONDNS DB=>MWB, 7/21 10:45:00, 31.48550, 1.48422E-002, 38.43416, 2.06851, 1.95246E-002
 Zone Sizing Information, THERMAL ZONE 22, Heating, 3359.91801, 4199.89751, 0.17095, 0.21369, PHILADELPHIA INTERNATIONAL AP ANN HTG 99.6% CONDNS DB, 1/21 06:00:00, -10.80000, 1.48961E-003, 38.43416, 2.06851, 1.95246E-002
 Zone Sizing Information, THERMAL ZONE 10, Cooling, 1015.48195, 1167.80424, 5.90413E-002, 6.78975E-002, PHILADELPHIA INTERNATIONAL AP ANN CLG .4% CONDNS DB=>MWB, 7/21 18:15:00, 31.39150, 1.48422E-002, 38.43416, 2.06851, 1.95246E-002
 Zone Sizing Information, THERMAL ZONE 10, Heating, 2757.49098, 3446.86372, 0.14033, 0.17541, PHILADELPHIA INTERNATIONAL AP ANN HTG 99.6% CONDNS DB, 1/21 06:00:00, -10.80000, 1.48961E-003, 38.43416, 2.06851, 1.95246E-002
 Zone Sizing Information, THERMAL ZONE 6, Cooling, 1919.09437, 2206.95852, 0.11157, 0.12831, PHILADELPHIA INTERNATIONAL AP ANN CLG .4% CONDNS DB=>MWB, 7/21 13:45:00, 33.88250, 1.48422E-002, 38.43416, 2.06851, 1.95246E-002
 Zone Sizing Information, THERMAL ZONE 6, Heating, 2745.21396, 3431.51745, 0.13970, 0.17463, PHILADELPHIA INTERNATIONAL AP ANN HTG 99.6% CONDNS DB, 1/21 06:00:00, -10.80000, 1.48961E-003, 38.43416, 2.06851, 1.95246E-002
 Zone Sizing Information, THERMAL ZONE 21, Cooling, 3021.64144, 3474.88766, 0.17567, 0.20202, PHILADELPHIA INTERNATIONAL AP ANN CLG .4% CONDNS DB=>MWB, 7/21 11:00:00, 31.83800, 1.48422E-002, 38.43416, 2.06851, 1.95246E-002
 Zone Sizing Information, THERMAL ZONE 21, Heating, 2543.20825, 3179.01032, 0.12942, 0.16178, PHILADELPHIA INTERNATIONAL AP ANN HTG 99.6% CONDNS DB, 1/21 06:00:00, -10.80000, 1.48961E-003, 38.43416, 2.06851, 1.95246E-002
 Zone Sizing Information, THERMAL ZONE 24, Cooling, 3092.64968, 3556.54713, 0.17980, 0.20677, PHILADELPHIA INTERNATIONAL AP ANN CLG .4% CONDNS DB=>MWB, 7/21 11:00:00, 31.83800, 1.48422E-002, 38.43416, 2.06851, 1.95246E-002
 Zone Sizing Information, THERMAL ZONE 24, Heating, 2539.41171, 3174.26464, 0.12923, 0.16153, PHILADELPHIA INTERNATIONAL AP ANN HTG 99.6% CONDNS DB, 1/21 06:00:00, -10.80000, 1.48961E-003, 38.43416, 2.06851, 1.95246E-002
 Zone Sizing Information, THERMAL ZONE 17, Cooling, 2870.76384, 3301.37842, 0.16690, 0.19193, PHILADELPHIA INTERNATIONAL AP ANN CLG .4% CONDNS DB=>MWB, 7/21 14:30:00, 34.00000, 1.48422E-002, 38.43416, 2.06851, 1.95246E-002
 Zone Sizing Information, THERMAL ZONE 17, Heating, 2558.82004, 3198.52505, 0.13022, 0.16277, PHILADELPHIA INTERNATIONAL AP ANN HTG 99.6% CONDNS DB, 1/21 06:00:00, -10.80000, 1.48961E-003, 38.43416, 2.06851, 1.95246E-002
 Zone Sizing Information, THERMAL ZONE 15, Cooling, 3378.98295, 3885.83039, 0.19644, 0.22591, PHILADELPHIA INTERNATIONAL AP ANN CLG .4% CONDNS DB=>MWB, 7/21 17:15:00, 32.44900, 1.48422E-002, 38.43416, 2.06851, 1.95246E-002
 Zone Sizing Information, THERMAL ZONE 15, Heating, 2563.49821, 3204.37277, 0.13045, 0.16307, PHILADELPHIA INTERNATIONAL AP ANN HTG 99.6% CONDNS DB, 1/21 06:00:00, -10.80000, 1.48961E-003, 38.43416, 2.06851, 1.95246E-002
 Zone Sizing Information, THERMAL ZONE 1, Cooling, 2156.09972, 2479.51468, 0.12535, 0.14416, PHILADELPHIA INTERNATIONAL AP ANN CLG .4% CONDNS DB=>MWB, 7/21 10:15:00, 30.78050, 1.48422E-002, 38.43416, 2.06851, 1.95246E-002
 Zone Sizing Information, THERMAL ZONE 1, Heating, 2745.21396, 3431.51745, 0.13970, 0.17463, PHILADELPHIA INTERNATIONAL AP ANN HTG 99.6% CONDNS DB, 1/21 06:00:00, -10.80000, 1.48961E-003, 38.43416, 2.06851, 1.95246E-002
 Zone Sizing Information, THERMAL ZONE 7, Cooling, 3484.93831, 4007.67906, 0.20261, 0.23300, PHILADELPHIA INTERNATIONAL AP ANN CLG .4% CONDNS DB=>MWB, 7/21 17:15:00, 32.44900, 1.48422E-002, 38.43416, 2.06851, 1.95246E-002
 Zone Sizing Information, THERMAL ZONE 7, Heating, 3386.12334, 4232.65418, 0.17229, 0.21536, PHILADELPHIA INTERNATIONAL AP ANN HTG 99.6% CONDNS DB, 1/21 06:00:00, -10.80000, 1.48961E-003, 38.43416, 2.06851, 1.95246E-002
 Zone Sizing Information, THERMAL ZONE 5, Cooling, 2519.05227, 2896.91011, 0.14645, 0.16842, PHILADELPHIA INTERNATIONAL AP ANN CLG .4% CONDNS DB=>MWB, 7/21 16:45:00, 32.87200, 1.48422E-002, 38.43416, 2.06851, 1.95246E-002
 Zone Sizing Information, THERMAL ZONE 5, Heating, 2757.49098, 3446.86372, 0.14033, 0.17541, PHILADELPHIA INTERNATIONAL AP ANN HTG 99.6% CONDNS DB, 1/21 06:00:00, -10.80000, 1.48961E-003, 38.43416, 2.06851, 1.95246E-002
 Zone Sizing Information, THERMAL ZONE 23, Cooling, 2866.36839, 3296.32364, 0.16664, 0.19164, PHILADELPHIA INTERNATIONAL AP ANN CLG .4% CONDNS DB=>MWB, 7/21 14:30:00, 34.00000, 1.48422E-002, 38.43416, 2.06851, 1.95246E-002
 Zone Sizing Information, THERMAL ZONE 23, Heating, 2539.41171, 3174.26464, 0.12923, 0.16153, PHILADELPHIA INTERNATIONAL AP ANN HTG 99.6% CONDNS DB, 1/21 06:00:00, -10.80000, 1.48961E-003, 38.43416, 2.06851, 1.95246E-002
 Zone Sizing Information, THERMAL ZONE 4, Cooling, 1730.09462, 1989.60881, 0.10059, 0.11567, PHILADELPHIA INTERNATIONAL AP ANN CLG .4% CONDNS DB=>MWB, 7/21 18:15:00, 31.39150, 1.48422E-002, 38.43416, 2.06851, 1.95246E-002
 Zone Sizing Information, THERMAL ZONE 4, Heating, 2563.49821, 3204.37277, 0.13045, 0.16307, PHILADELPHIA INTERNATIONAL AP ANN HTG 99.6% CONDNS DB, 1/21 06:00:00, -10.80000, 1.48961E-003, 38.43416, 2.06851, 1.95246E-002
 Zone Sizing Information, THERMAL ZONE 14, Cooling, 1799.51468, 2069.44188, 0.10462, 0.12031, PHILADELPHIA INTERNATIONAL AP ANN CLG .4% CONDNS DB=>MWB, 7/21 18:15:00, 31.39150, 1.48422E-002, 38.43416, 2.06851, 1.95246E-002
 Zone Sizing Information, THERMAL ZONE 14, Heating, 2562.88284, 3203.60355, 0.13042, 0.16303, PHILADELPHIA INTERNATIONAL AP ANN HTG 99.6% CONDNS DB, 1/21 06:00:00, -10.80000, 1.48961E-003, 38.43416, 2.06851, 1.95246E-002
 Zone Sizing Information, THERMAL ZONE 8, Cooling, 2635.07882, 3030.34064, 0.15320, 0.17617, PHILADELPHIA INTERNATIONAL AP ANN CLG .4% CONDNS DB=>MWB, 7/21 17:15:00, 32.44900, 1.48422E-002, 96.26334, 5.18085, 4.89018E-002
 Zone Sizing Information, THERMAL ZONE 8, Heating, 574.96374, 718.70467, 2.92690E-002, 4.89018E-002, PHILADELPHIA INTERNATIONAL AP ANN HTG 99.6% CONDNS DB, 1/21 07:00:00, -10.80000, 1.48961E-003, 96.26334, 5.18085, 4.89018E-002
 Zone Sizing Information, THERMAL ZONE 13, Cooling, 2830.80421, 3255.42484, 0.16457, 0.18926, PHILADELPHIA INTERNATIONAL AP ANN CLG .4% CONDNS DB=>MWB, 7/21 17:15:00, 32.44900, 1.48422E-002, 96.26334, 5.18085, 4.89018E-002
 Zone Sizing Information, THERMAL ZONE 13, Heating, 570.95499, 713.69374, 2.90650E-002, 4.89018E-002, PHILADELPHIA INTERNATIONAL AP ANN HTG 99.6% CONDNS DB, 1/21 07:00:00, -10.80000, 1.48961E-003, 96.26334, 5.18085, 4.89018E-002
 Zone Sizing Information, THERMAL ZONE 20, Cooling, 3097.72369, 3562.38224, 0.18009, 0.20711, PHILADELPHIA INTERNATIONAL AP ANN CLG .4% CONDNS DB=>MWB, 7/21 11:00:00, 31.83800, 1.48422E-002, 38.43416, 2.06851, 1.95246E-002
 Zone Sizing Information, THERMAL ZONE 20, Heating, 2558.82004, 3198.52505, 0.13022, 0.16277, PHILADELPHIA INTERNATIONAL AP ANN HTG 99.6% CONDNS DB, 1/21 06:00:00, -10.80000, 1.48961E-003, 38.43416, 2.06851, 1.95246E-002
 Zone Sizing Information, THERMAL ZONE 9, Cooling, 2799.06668, 3218.92668, 0.16273, 0.18714, PHILADELPHIA INTERNATIONAL AP ANN CLG .4% CONDNS DB=>MWB, 7/21 14:30:00, 34.00000, 1.48422E-002, 38.43416, 2.06851, 1.95246E-002
 Zone Sizing Information, THERMAL ZONE 9, Heating, 2543.20825, 3179.01032, 0.12942, 0.16178, PHILADELPHIA INTERNATIONAL AP ANN HTG 99.6% CONDNS DB, 1/21 06:00:00, -10.80000, 1.48961E-003, 38.43416, 2.06851, 1.95246E-002
 Zone Sizing Information, THERMAL ZONE 2, Cooling, 2804.60702, 3225.29808, 0.16305, 0.18751, PHILADELPHIA INTERNATIONAL AP ANN CLG .4% CONDNS DB=>MWB, 7/21 17:15:00, 32.44900, 1.48422E-002, 96.26334, 5.18085, 4.89018E-002
 Zone Sizing Information, THERMAL ZONE 2, Heating, 526.75793, 658.44742, 2.68151E-002, 4.89018E-002, PHILADELPHIA INTERNATIONAL AP ANN HTG 99.6% CONDNS DB, 1/21 07:00:00, -10.80000, 1.48961E-003, 96.26334, 5.18085, 4.89018E-002
 Zone Sizing Information, THERMAL ZONE 11, Cooling, 1876.04022, 2157.44625, 0.10907, 0.12544, PHILADELPHIA INTERNATIONAL AP ANN CLG .4% CONDNS DB=>MWB, 7/21 18:15:00, 31.39150, 1.48422E-002, 38.43416, 2.06851, 1.95246E-002
 Zone Sizing Information, THERMAL ZONE 11, Heating, 3386.12334, 4232.65418, 0.17229, 0.21536, PHILADELPHIA INTERNATIONAL AP ANN HTG 99.6% CONDNS DB, 1/21 06:00:00, -10.80000, 1.48961E-003, 38.43416, 2.06851, 1.95246E-002
 Zone Sizing Information, THERMAL ZONE 12, Cooling, 2878.31570, 3310.06306, 0.16734, 0.19245, PHILADELPHIA INTERNATIONAL AP ANN CLG .4% CONDNS DB=>MWB, 7/21 14:30:00, 34.00000, 1.48422E-002, 38.43416, 2.06851, 1.95246E-002
 Zone Sizing Information, THERMAL ZONE 12, Heating, 3359.91801, 4199.89751, 0.17095, 0.21369, PHILADELPHIA INTERNATIONAL AP ANN HTG 99.6% CONDNS DB, 1/21 06:00:00, -10.80000, 1.48961E-003, 38.43416, 2.06851, 1.95246E-002
 Zone Sizing Information, THERMAL ZONE 3, Cooling, 3447.39984, 3964.50981, 0.20042, 0.23048, PHILADELPHIA INTERNATIONAL AP ANN CLG .4% CONDNS DB=>MWB, 7/21 17:15:00, 32.44900, 1.48422E-002, 38.43416, 2.06851, 1.95246E-002
 Zone Sizing Information, THERMAL ZONE 3, Heating, 2584.16040, 3230.20050, 0.13150, 0.16438, PHILADELPHIA INTERNATIONAL AP ANN HTG 99.6% CONDNS DB, 1/21 06:00:00, -10.80000, 1.48961E-003, 38.43416, 2.06851, 1.95246E-002
 Zone Sizing Information, THERMAL ZONE 18, Cooling, 2974.97410, 3421.22021, 0.17296, 0.19891, PHILADELPHIA INTERNATIONAL AP ANN CLG .4% CONDNS DB=>MWB, 7/21 18:00:00, 31.74400, 1.48422E-002, 96.26334, 5.18085, 4.89018E-002
 Zone Sizing Information, THERMAL ZONE 18, Heating, 2491.46609, 3114.33261, 0.12680, 0.15850, PHILADELPHIA INTERNATIONAL AP ANN HTG 99.6% CONDNS DB, 1/21 06:00:00, -10.80000, 1.48961E-003, 96.26334, 5.18085, 4.89018E-002
! <System Sizing Information>, System Name, Field Description, Value
 System Sizing Information, AIR LOOP HVAC 1, Calculated Cooling Design Air Flow Rate [m3/s], 4.34299
 System Sizing Information, AIR LOOP HVAC 1, User Cooling Design Air Flow Rate [m3/s], 4.34299
 System Sizing Information, AIR LOOP HVAC 1, Calculated Heating Design Air Flow Rate [m3/s], 3.89382
 System Sizing Information, AIR LOOP HVAC 1, User Heating Design Air Flow Rate [m3/s], 3.89382
! <Component Sizing Information>, Component Type, Component Name, Input Field Description, Value
 Component Sizing Information, AirTerminal:SingleDuct:VAV:Reheat, AIR TERMINAL SINGLE DUCT VAV REHEAT 25, Maximum Air Flow Rate [m3/s], 9.61733E-002
 Component Sizing Information, AirTerminal:SingleDuct:VAV:Reheat, AIR TERMINAL SINGLE DUCT VAV REHEAT 25, Maximum Flow per Zone Floor Area during Reheat [m3/s-m2], 9.99064E-004
 Component Sizing Information, AirTerminal:SingleDuct:VAV:Reheat, AIR TERMINAL SINGLE DUCT VAV REHEAT 25, Maximum Flow Fraction during Reheat [], 1.00000
 Component Sizing Information, AirTerminal:SingleDuct:VAV:Reheat, AIR TERMINAL SINGLE DUCT VAV REHEAT 25, Maximum Reheat Water Flow Rate [m3/s], 5.70542E-005
 Component Sizing Information, AirTerminal:SingleDuct:VAV:Reheat, AIR TERMINAL SINGLE DUCT VAV REHEAT 25, Reheat Coil Sizing Air Volume Flow Rate [m3/s], 7.73279E-002
 Component Sizing Information, Coil:Heating:Water, COIL HEATING WATER 26, Maximum Water Flow Rate [m3/s], 5.70542E-005
 Component Sizing Information, Coil:Heating:Water, COIL HEATING WATER 26, Design Coil Load [W], 2626.22118
 Component Sizing Information, Coil:Heating:Water, COIL HEATING WATER 26, U-Factor Times Area Value [W/K], 68.40662
! <Water Heating Coil Capacity Information>,Component Type,Name,Nominal Total Capacity {W}
Water Heating Coil Capacity Information,Coil:Heating:Water,COIL HEATING WATER 26,2876.49
 Component Sizing Information, AirTerminal:SingleDuct:VAV:Reheat, AIR TERMINAL SINGLE DUCT VAV REHEAT 18, Maximum Air Flow Rate [m3/s], 0.23032
 Component Sizing Information, AirTerminal:SingleDuct:VAV:Reheat, AIR TERMINAL SINGLE DUCT VAV REHEAT 18, Maximum Flow per Zone Floor Area during Reheat [m3/s-m2], 2.03200E-003
 Component Sizing Information, AirTerminal:SingleDuct:VAV:Reheat, AIR TERMINAL SINGLE DUCT VAV REHEAT 18, Maximum Flow Fraction during Reheat [], 0.33909
 Component Sizing Information, AirTerminal:SingleDuct:VAV:Reheat, AIR TERMINAL SINGLE DUCT VAV REHEAT 18, Maximum Reheat Water Flow Rate [m3/s], 1.20285E-004
 Component Sizing Information, AirTerminal:SingleDuct:VAV:Reheat, AIR TERMINAL SINGLE DUCT VAV REHEAT 18, Reheat Coil Sizing Air Volume Flow Rate [m3/s], 0.16303
 Component Sizing Information, Coil:Heating:Water, COIL HEATING WATER 19, Maximum Water Flow Rate [m3/s], 1.20285E-004
 Component Sizing Information, Coil:Heating:Water, COIL HEATING WATER 19, Design Coil Load [W], 5536.76917
 Component Sizing Information, Coil:Heating:Water, COIL HEATING WATER 19, U-Factor Times Area Value [W/K], 163.82033
Water Heating Coil Capacity Information,Coil:Heating:Water,COIL HEATING WATER 19,6564.94
 Component Sizing Information, AirTerminal:SingleDuct:VAV:Reheat, AIR TERMINAL SINGLE DUCT VAV REHEAT 14, Maximum Air Flow Rate [m3/s], 0.16438
 Component Sizing Information, AirTerminal:SingleDuct:VAV:Reheat, AIR TERMINAL SINGLE DUCT VAV REHEAT 14, Maximum Flow per Zone Floor Area during Reheat [m3/s-m2], 2.03200E-003
 Component Sizing Information, AirTerminal:SingleDuct:VAV:Reheat, AIR TERMINAL SINGLE DUCT VAV REHEAT 14, Maximum Flow Fraction during Reheat [], 0.47510
 Component Sizing Information, AirTerminal:SingleDuct:VAV:Reheat, AIR TERMINAL SINGLE DUCT VAV REHEAT 14, Maximum Reheat Water Flow Rate [m3/s], 1.21284E-004
 Component Sizing Information, AirTerminal:SingleDuct:VAV:Reheat, AIR TERMINAL SINGLE DUCT VAV REHEAT 14, Reheat Coil Sizing Air Volume Flow Rate [m3/s], 0.16438
 Component Sizing Information, Coil:Heating:Water, COIL HEATING WATER 15, Maximum Water Flow Rate [m3/s], 1.21284E-004
 Component Sizing Information, Coil:Heating:Water, COIL HEATING WATER 15, Design Coil Load [W], 5582.73747
 Component Sizing Information, Coil:Heating:Water, COIL HEATING WATER 15, U-Factor Times Area Value [W/K], 116.92195
Water Heating Coil Capacity Information,Coil:Heating:Water,COIL HEATING WATER 15,5288.35
 Component Sizing Information, AirTerminal:SingleDuct:VAV:Reheat, AIR TERMINAL SINGLE DUCT VAV REHEAT 19, Maximum Air Flow Rate [m3/s], 0.21369
 Component Sizing Information, AirTerminal:SingleDuct:VAV:Reheat, AIR TERMINAL SINGLE DUCT VAV REHEAT 19, Maximum Flow per Zone Floor Area during Reheat [m3/s-m2], 2.03200E-003
 Component Sizing Information, AirTerminal:SingleDuct:VAV:Reheat, AIR TERMINAL SINGLE DUCT VAV REHEAT 19, Maximum Flow Fraction during Reheat [], 0.36547
 Component Sizing Information, AirTerminal:SingleDuct:VAV:Reheat, AIR TERMINAL SINGLE DUCT VAV REHEAT 19, Maximum Reheat Water Flow Rate [m3/s], 1.57667E-004
 Component Sizing Information, AirTerminal:SingleDuct:VAV:Reheat, AIR TERMINAL SINGLE DUCT VAV REHEAT 19, Reheat Coil Sizing Air Volume Flow Rate [m3/s], 0.21369
 Component Sizing Information, Coil:Heating:Water, COIL HEATING WATER 20, Maximum Water Flow Rate [m3/s], 1.57667E-004
 Component Sizing Information, Coil:Heating:Water, COIL HEATING WATER 20, Design Coil Load [W], 7257.45657
 Component Sizing Information, Coil:Heating:Water, COIL HEATING WATER 20, U-Factor Times Area Value [W/K], 151.99639
Water Heating Coil Capacity Information,Coil:Heating:Water,COIL HEATING WATER 20,6874.76
 Component Sizing Information, AirTerminal:SingleDuct:VAV:Reheat, AIR TERMINAL SINGLE DUCT VAV REHEAT 20, Maximum Air Flow Rate [m3/s], 0.17541
 Component Sizing Information, AirTerminal:SingleDuct:VAV:Reheat, AIR TERMINAL SINGLE DUCT VAV REHEAT 20, Maximum Flow per Zone Floor Area during Reheat [m3/s-m2], 2.03200E-003
 Component Sizing Information, AirTerminal:SingleDuct:VAV:Reheat, AIR TERMINAL SINGLE DUCT VAV REHEAT 20, Maximum Flow Fraction during Reheat [], 0.44524
 Component Sizing Information, AirTerminal:SingleDuct:VAV:Reheat, AIR TERMINAL SINGLE DUCT VAV REHEAT 20, Maximum Reheat Water Flow Rate [m3/s], 1.29419E-004
 Component Sizing Information, AirTerminal:SingleDuct:VAV:Reheat, AIR TERMINAL SINGLE DUCT VAV REHEAT 20, Reheat Coil Sizing Air Volume Flow Rate [m3/s], 0.17541
 Component Sizing Information, Coil:Heating:Water, COIL HEATING WATER 21, Maximum Water Flow Rate [m3/s], 1.29419E-004
 Component Sizing Information, Coil:Heating:Water, COIL HEATING WATER 21, Design Coil Load [W], 5957.21124
 Component Sizing Information, Coil:Heating:Water, COIL HEATING WATER 21, U-Factor Times Area Value [W/K], 124.76473
Water Heating Coil Capacity Information,Coil:Heating:Water,COIL HEATING WATER 21,5643.08
 Component Sizing Information, AirTerminal:SingleDuct:VAV:Reheat, AIR TERMINAL SINGLE DUCT VAV REHEAT 15, Maximum Air Flow Rate [m3/s], 0.17463
 Component Sizing Information, AirTerminal:SingleDuct:VAV:Reheat, AIR TERMINAL SINGLE DUCT VAV REHEAT 15, Maximum Flow per Zone Floor Area during Reheat [m3/s-m2], 2.03200E-003
 Component Sizing Information, AirTerminal:SingleDuct:VAV:Reheat, AIR TERMINAL SINGLE DUCT VAV REHEAT 15, Maximum Flow Fraction during Reheat [], 0.44723
 Component Sizing Information, AirTerminal:SingleDuct:VAV:Reheat, AIR TERMINAL SINGLE DUCT VAV REHEAT 15, Maximum Reheat Water Flow Rate [m3/s], 1.28843E-004
 Component Sizing Information, AirTerminal:SingleDuct:VAV:Reheat, AIR TERMINAL SINGLE DUCT VAV REHEAT 15, Reheat Coil Sizing Air Volume Flow Rate [m3/s], 0.17463
 Component Sizing Information, Coil:Heating:Water, COIL HEATING WATER 16, Maximum Water Flow Rate [m3/s], 1.28843E-004
 Component Sizing Information, Coil:Heating:Water, COIL HEATING WATER 16, Design Coil Load [W], 5930.68827
 Component Sizing Information, Coil:Heating:Water, COIL HEATING WATER 16, U-Factor Times Area Value [W/K], 124.20925
Water Heating Coil Capacity Information,Coil:Heating:Water,COIL HEATING WATER 16,5617.95
 Component Sizing Information, AirTerminal:SingleDuct:VAV:Reheat, AIR TERMINAL SINGLE DUCT VAV REHEAT 9, Maximum Air Flow Rate [m3/s], 0.20202
 Component Sizing Information, AirTerminal:SingleDuct:VAV:Reheat, AIR TERMINAL SINGLE DUCT VAV REHEAT 9, Maximum Flow per Zone Floor Area during Reheat [m3/s-m2], 2.03200E-003
 Component Sizing Information, AirTerminal:SingleDuct:VAV:Reheat, AIR TERMINAL SINGLE DUCT VAV REHEAT 9, Maximum Flow Fraction during Reheat [], 0.38659
 Component Sizing Information, AirTerminal:SingleDuct:VAV:Reheat, AIR TERMINAL SINGLE DUCT VAV REHEAT 9, Maximum Reheat Water Flow Rate [m3/s], 1.19362E-004
 Component Sizing Information, AirTerminal:SingleDuct:VAV:Reheat, AIR TERMINAL SINGLE DUCT VAV REHEAT 9, Reheat Coil Sizing Air Volume Flow Rate [m3/s], 0.16178
 Component Sizing Information, Coil:Heating:Water, COIL HEATING WATER 10, Maximum Water Flow Rate [m3/s], 1.19362E-004
 Component Sizing Information, Coil:Heating:Water, COIL HEATING WATER 10, Design Coil Load [W], 5494.26585
 Component Sizing Information, Coil:Heating:Water, COIL HEATING WATER 10, U-Factor Times Area Value [W/K], 143.69415
Water Heating Coil Capacity Information,Coil:Heating:Water,COIL HEATING WATER 10,6033.47
 Component Sizing Information, AirTerminal:SingleDuct:VAV:Reheat, AIR TERMINAL SINGLE DUCT VAV REHEAT 6, Maximum Air Flow Rate [m3/s], 0.20677
 Component Sizing Information, AirTerminal:SingleDuct:VAV:Reheat, AIR TERMINAL SINGLE DUCT VAV REHEAT 6, Maximum Flow per Zone Floor Area during Reheat [m3/s-m2], 2.03200E-003
 Component Sizing Information, AirTerminal:SingleDuct:VAV:Reheat, AIR TERMINAL SINGLE DUCT VAV REHEAT 6, Maximum Flow Fraction during Reheat [], 0.37771
 Component Sizing Information, AirTerminal:SingleDuct:VAV:Reheat, AIR TERMINAL SINGLE DUCT VAV REHEAT 6, Maximum Reheat Water Flow Rate [m3/s], 1.19184E-004
 Component Sizing Information, AirTerminal:SingleDuct:VAV:Reheat, AIR TERMINAL SINGLE DUCT VAV REHEAT 6, Reheat Coil Sizing Air Volume Flow Rate [m3/s], 0.16153
 Component Sizing Information, Coil:Heating:Water, COIL HEATING WATER 7, Maximum Water Flow Rate [m3/s], 1.19184E-004
 Component Sizing Information, Coil:Heating:Water, COIL HEATING WATER 7, Design Coil Load [W], 5486.06284
 Component Sizing Information, Coil:Heating:Water, COIL HEATING WATER 7, U-Factor Times Area Value [W/K], 147.07075
Water Heating Coil Capacity Information,Coil:Heating:Water,COIL HEATING WATER 7,6119.73
 Component Sizing Information, AirTerminal:SingleDuct:VAV:Reheat, AIR TERMINAL SINGLE DUCT VAV REHEAT 22, Maximum Air Flow Rate [m3/s], 0.19193
 Component Sizing Information, AirTerminal:SingleDuct:VAV:Reheat, AIR TERMINAL SINGLE DUCT VAV REHEAT 22, Maximum Flow per Zone Floor Area during Reheat [m3/s-m2], 2.03200E-003
 Component Sizing Information, AirTerminal:SingleDuct:VAV:Reheat, AIR TERMINAL SINGLE DUCT VAV REHEAT 22, Maximum Flow Fraction during Reheat [], 0.40690
 Component Sizing Information, AirTerminal:SingleDuct:VAV:Reheat, AIR TERMINAL SINGLE DUCT VAV REHEAT 22, Maximum Reheat Water Flow Rate [m3/s], 1.20095E-004
 Component Sizing Information, AirTerminal:SingleDuct:VAV:Reheat, AIR TERMINAL SINGLE DUCT VAV REHEAT 22, Reheat Coil Sizing Air Volume Flow Rate [m3/s], 0.16277
 Component Sizing Information, Coil:Heating:Water, COIL HEATING WATER 23, Maximum Water Flow Rate [m3/s], 1.20095E-004
 Component Sizing Information, Coil:Heating:Water, COIL HEATING WATER 23, Design Coil Load [W], 5527.99287
 Component Sizing Information, Coil:Heating:Water, COIL HEATING WATER 23, U-Factor Times Area Value [W/K], 136.51910
Water Heating Coil Capacity Information,Coil:Heating:Water,COIL HEATING WATER 23,5850.04
 Component Sizing Information, AirTerminal:SingleDuct:VAV:Reheat, AIR TERMINAL SINGLE DUCT VAV REHEAT 10, Maximum Air Flow Rate [m3/s], 0.22591
 Component Sizing Information, AirTerminal:SingleDuct:VAV:Reheat, AIR TERMINAL SINGLE DUCT VAV REHEAT 10, Maximum Flow per Zone Floor Area during Reheat [m3/s-m2], 2.03200E-003
 Component Sizing Information, AirTerminal:SingleDuct:VAV:Reheat, AIR TERMINAL SINGLE DUCT VAV REHEAT 10, Maximum Flow Fraction during Reheat [], 0.34570
 Component Sizing Information, AirTerminal:SingleDuct:VAV:Reheat, AIR TERMINAL SINGLE DUCT VAV REHEAT 10, Maximum Reheat Water Flow Rate [m3/s], 1.20314E-004
 Component Sizing Information, AirTerminal:SingleDuct:VAV:Reheat, AIR TERMINAL SINGLE DUCT VAV REHEAT 10, Reheat Coil Sizing Air Volume Flow Rate [m3/s], 0.16307
 Component Sizing Information, Coil:Heating:Water, COIL HEATING WATER 11, Maximum Water Flow Rate [m3/s], 1.20314E-004
 Component Sizing Information, Coil:Heating:Water, COIL HEATING WATER 11, Design Coil Load [W], 5538.09968
 Component Sizing Information, Coil:Heating:Water, COIL HEATING WATER 11, U-Factor Times Area Value [W/K], 160.68688
Water Heating Coil Capacity Information,Coil:Heating:Water,COIL HEATING WATER 11,6488.91
 Component Sizing Information, AirTerminal:SingleDuct:VAV:Reheat, AIR TERMINAL SINGLE DUCT VAV REHEAT 26, Maximum Air Flow Rate [m3/s], 0.17463
 Component Sizing Information, AirTerminal:SingleDuct:VAV:Reheat, AIR TERMINAL SINGLE DUCT VAV REHEAT 26, Maximum Flow per Zone Floor Area during Reheat [m3/s-m2], 2.03200E-003
 Component Sizing Information, AirTerminal:SingleDuct:VAV:Reheat, AIR TERMINAL SINGLE DUCT VAV REHEAT 26, Maximum Flow Fraction during Reheat [], 0.44723
 Component Sizing Information, AirTerminal:SingleDuct:VAV:Reheat, AIR TERMINAL SINGLE DUCT VAV REHEAT 26, Maximum Reheat Water Flow Rate [m3/s], 1.28843E-004
 Component Sizing Information, AirTerminal:SingleDuct:VAV:Reheat, AIR TERMINAL SINGLE DUCT VAV REHEAT 26, Reheat Coil Sizing Air Volume Flow Rate [m3/s], 0.17463
 Component Sizing Information, Coil:Heating:Water, COIL HEATING WATER 27, Maximum Water Flow Rate [m3/s], 1.28843E-004
 Component Sizing Information, Coil:Heating:Water, COIL HEATING WATER 27, Design Coil Load [W], 5930.68827
 Component Sizing Information, Coil:Heating:Water, COIL HEATING WATER 27, U-Factor Times Area Value [W/K], 124.20925
Water Heating Coil Capacity Information,Coil:Heating:Water,COIL HEATING WATER 27,5617.95
 Component Sizing Information, AirTerminal:SingleDuct:VAV:Reheat, AIR TERMINAL SINGLE DUCT VAV REHEAT 17, Maximum Air Flow Rate [m3/s], 0.23300
 Component Sizing Information, AirTerminal:SingleDuct:VAV:Reheat, AIR TERMINAL SINGLE DUCT VAV REHEAT 17, Maximum Flow per Zone Floor Area during Reheat [m3/s-m2], 2.03200E-003
 Component Sizing Information, AirTerminal:SingleDuct:VAV:Reheat, AIR TERMINAL SINGLE DUCT VAV REHEAT 17, Maximum Flow Fraction during Reheat [], 0.33518
 Component Sizing Information, AirTerminal:SingleDuct:VAV:Reheat, AIR TERMINAL SINGLE DUCT VAV REHEAT 17, Maximum Reheat Water Flow Rate [m3/s], 1.58897E-004
 Component Sizing Information, AirTerminal:SingleDuct:VAV:Reheat, AIR TERMINAL SINGLE DUCT VAV REHEAT 17, Reheat Coil Sizing Air Volume Flow Rate [m3/s], 0.21536
 Component Sizing Information, Coil:Heating:Water, COIL HEATING WATER 18, Maximum Water Flow Rate [m3/s], 1.58897E-004
 Component Sizing Information, Coil:Heating:Water, COIL HEATING WATER 18, Design Coil Load [W], 7314.06019
 Component Sizing Information, Coil:Heating:Water, COIL HEATING WATER 18, U-Factor Times Area Value [W/K], 165.73224
Water Heating Coil Capacity Information,Coil:Heating:Water,COIL HEATING WATER 18,7310.95
 Component Sizing Information, AirTerminal:SingleDuct:VAV:Reheat, AIR TERMINAL SINGLE DUCT VAV REHEAT 8, Maximum Air Flow Rate [m3/s], 0.17541
 Component Sizing Information, AirTerminal:SingleDuct:VAV:Reheat, AIR TERMINAL SINGLE DUCT VAV REHEAT 8, Maximum Flow per Zone Floor Area during Reheat [m3/s-m2], 2.03200E-003
 Component Sizing Information, AirTerminal:SingleDuct:VAV:Reheat, AIR TERMINAL SINGLE DUCT VAV REHEAT 8, Maximum Flow Fraction during Reheat [], 0.44524
 Component Sizing Information, AirTerminal:SingleDuct:VAV:Reheat, AIR TERMINAL SINGLE DUCT VAV REHEAT 8, Maximum Reheat Water Flow Rate [m3/s], 1.29419E-004
 Component Sizing Information, AirTerminal:SingleDuct:VAV:Reheat, AIR TERMINAL SINGLE DUCT VAV REHEAT 8, Reheat Coil Sizing Air Volume Flow Rate [m3/s], 0.17541
 Component Sizing Information, Coil:Heating:Water, COIL HEATING WATER 9, Maximum Water Flow Rate [m3/s], 1.29419E-004
 Component Sizing Information, Coil:Heating:Water, COIL HEATING WATER 9, Design Coil Load [W], 5957.21124
 Component Sizing Information, Coil:Heating:Water, COIL HEATING WATER 9, U-Factor Times Area Value [W/K], 124.76473
Water Heating Coil Capacity Information,Coil:Heating:Water,COIL HEATING WATER 9,5643.08
 Component Sizing Information, AirTerminal:SingleDuct:VAV:Reheat, AIR TERMINAL SINGLE DUCT VAV REHEAT 7, Maximum Air Flow Rate [m3/s], 0.19164
 Component Sizing Information, AirTerminal:SingleDuct:VAV:Reheat, AIR TERMINAL SINGLE DUCT VAV REHEAT 7, Maximum Flow per Zone Floor Area during Reheat [m3/s-m2], 2.03200E-003
 Component Sizing Information, AirTerminal:SingleDuct:VAV:Reheat, AIR TERMINAL SINGLE DUCT VAV REHEAT 7, Maximum Flow Fraction during Reheat [], 0.40753
 Component Sizing Information, AirTerminal:SingleDuct:VAV:Reheat, AIR TERMINAL SINGLE DUCT VAV REHEAT 7, Maximum Reheat Water Flow Rate [m3/s], 1.19184E-004
 Component Sizing Information, AirTerminal:SingleDuct:VAV:Reheat, AIR TERMINAL SINGLE DUCT VAV REHEAT 7, Reheat Coil Sizing Air Volume Flow Rate [m3/s], 0.16153
 Component Sizing Information, Coil:Heating:Water, COIL HEATING WATER 8, Maximum Water Flow Rate [m3/s], 1.19184E-004
 Component Sizing Information, Coil:Heating:Water, COIL HEATING WATER 8, Design Coil Load [W], 5486.06284
 Component Sizing Information, Coil:Heating:Water, COIL HEATING WATER 8, U-Factor Times Area Value [W/K], 136.31009
Water Heating Coil Capacity Information,Coil:Heating:Water,COIL HEATING WATER 8,5828.72
 Component Sizing Information, AirTerminal:SingleDuct:VAV:Reheat, AIR TERMINAL SINGLE DUCT VAV REHEAT 4, Maximum Air Flow Rate [m3/s], 0.16307
 Component Sizing Information, AirTerminal:SingleDuct:VAV:Reheat, AIR TERMINAL SINGLE DUCT VAV REHEAT 4, Maximum Flow per Zone Floor Area during Reheat [m3/s-m2], 2.03200E-003
 Component Sizing Information, AirTerminal:SingleDuct:VAV:Reheat, AIR TERMINAL SINGLE DUCT VAV REHEAT 4, Maximum Flow Fraction during Reheat [], 0.47893
 Component Sizing Information, AirTerminal:SingleDuct:VAV:Reheat, AIR TERMINAL SINGLE DUCT VAV REHEAT 4, Maximum Reheat Water Flow Rate [m3/s], 1.20314E-004
 Component Sizing Information, AirTerminal:SingleDuct:VAV:Reheat, AIR TERMINAL SINGLE DUCT VAV REHEAT 4, Reheat Coil Sizing Air Volume Flow Rate [m3/s], 0.16307
 Component Sizing Information, Coil:Heating:Water, COIL HEATING WATER 5, Maximum Water Flow Rate [m3/s], 1.20314E-004
 Component Sizing Information, Coil:Heating:Water, COIL HEATING WATER 5, Design Coil Load [W], 5538.09968
 Component Sizing Information, Coil:Heating:Water, COIL HEATING WATER 5, U-Factor Times Area Value [W/K], 115.98708
Water Heating Coil Capacity Information,Coil:Heating:Water,COIL HEATING WATER 5,5246.06
 Component Sizing Information, AirTerminal:SingleDuct:VAV:Reheat, AIR TERMINAL SINGLE DUCT VAV REHEAT 3, Maximum Air Flow Rate [m3/s], 0.16303
 Component Sizing Information, AirTerminal:SingleDuct:VAV:Reheat, AIR TERMINAL SINGLE DUCT VAV REHEAT 3, Maximum Flow per Zone Floor Area during Reheat [m3/s-m2], 2.03200E-003
 Component Sizing Information, AirTerminal:SingleDuct:VAV:Reheat, AIR TERMINAL SINGLE DUCT VAV REHEAT 3, Maximum Flow Fraction during Reheat [], 0.47905
 Component Sizing Information, AirTerminal:SingleDuct:VAV:Reheat, AIR TERMINAL SINGLE DUCT VAV REHEAT 3, Maximum Reheat Water Flow Rate [m3/s], 1.20285E-004
 Component Sizing Information, AirTerminal:SingleDuct:VAV:Reheat, AIR TERMINAL SINGLE DUCT VAV REHEAT 3, Reheat Coil Sizing Air Volume Flow Rate [m3/s], 0.16303
 Component Sizing Information, Coil:Heating:Water, COIL HEATING WATER 4, Maximum Water Flow Rate [m3/s], 1.20285E-004
 Component Sizing Information, Coil:Heating:Water, COIL HEATING WATER 4, Design Coil Load [W], 5536.76917
 Component Sizing Information, Coil:Heating:Water, COIL HEATING WATER 4, U-Factor Times Area Value [W/K], 115.95921
Water Heating Coil Capacity Information,Coil:Heating:Water,COIL HEATING WATER 4,5244.80
 Component Sizing Information, AirTerminal:SingleDuct:VAV:Reheat, AIR TERMINAL SINGLE DUCT VAV REHEAT 23, Maximum Air Flow Rate [m3/s], 0.17617
 Component Sizing Information, AirTerminal:SingleDuct:VAV:Reheat, AIR TERMINAL SINGLE DUCT VAV REHEAT 23, Maximum Flow per Zone Floor Area during Reheat [m3/s-m2], 1.83013E-003
 Component Sizing Information, AirTerminal:SingleDuct:VAV:Reheat, AIR TERMINAL SINGLE DUCT VAV REHEAT 23, Maximum Flow Fraction during Reheat [], 1.00000
 Component Sizing Information, AirTerminal:SingleDuct:VAV:Reheat, AIR TERMINAL SINGLE DUCT VAV REHEAT 23, Maximum Reheat Water Flow Rate [m3/s], 3.89957E-005
 Component Sizing Information, AirTerminal:SingleDuct:VAV:Reheat, AIR TERMINAL SINGLE DUCT VAV REHEAT 23, Reheat Coil Sizing Air Volume Flow Rate [m3/s], 5.28525E-002
 Component Sizing Information, Coil:Heating:Water, COIL HEATING WATER 24, Maximum Water Flow Rate [m3/s], 3.89957E-005
 Component Sizing Information, Coil:Heating:Water, COIL HEATING WATER 24, Design Coil Load [W], 1794.98243
 Component Sizing Information, Coil:Heating:Water, COIL HEATING WATER 24, U-Factor Times Area Value [W/K], 125.31059
Water Heating Coil Capacity Information,Coil:Heating:Water,COIL HEATING WATER 24,3213.61
 Component Sizing Information, AirTerminal:SingleDuct:VAV:Reheat, AIR TERMINAL SINGLE DUCT VAV REHEAT 2, Maximum Air Flow Rate [m3/s], 0.18926
 Component Sizing Information, AirTerminal:SingleDuct:VAV:Reheat, AIR TERMINAL SINGLE DUCT VAV REHEAT 2, Maximum Flow per Zone Floor Area during Reheat [m3/s-m2], 1.96605E-003
 Component Sizing Information, AirTerminal:SingleDuct:VAV:Reheat, AIR TERMINAL SINGLE DUCT VAV REHEAT 2, Maximum Flow Fraction during Reheat [], 1.00000
 Component Sizing Information, AirTerminal:SingleDuct:VAV:Reheat, AIR TERMINAL SINGLE DUCT VAV REHEAT 2, Maximum Reheat Water Flow Rate [m3/s], 4.18918E-005
 Component Sizing Information, AirTerminal:SingleDuct:VAV:Reheat, AIR TERMINAL SINGLE DUCT VAV REHEAT 2, Reheat Coil Sizing Air Volume Flow Rate [m3/s], 5.67777E-002
 Component Sizing Information, Coil:Heating:Water, COIL HEATING WATER 3, Maximum Water Flow Rate [m3/s], 4.18918E-005
 Component Sizing Information, Coil:Heating:Water, COIL HEATING WATER 3, Design Coil Load [W], 1928.29109
 Component Sizing Information, Coil:Heating:Water, COIL HEATING WATER 3, U-Factor Times Area Value [W/K], 134.61708
Water Heating Coil Capacity Information,Coil:Heating:Water,COIL HEATING WATER 3,3452.28
 Component Sizing Information, AirTerminal:SingleDuct:VAV:Reheat, AIR TERMINAL SINGLE DUCT VAV REHEAT 16, Maximum Air Flow Rate [m3/s], 0.20711
 Component Sizing Information, AirTerminal:SingleDuct:VAV:Reheat, AIR TERMINAL SINGLE DUCT VAV REHEAT 16, Maximum Flow per Zone Floor Area during Reheat [m3/s-m2], 2.03200E-003
 Component Sizing Information, AirTerminal:SingleDuct:VAV:Reheat, AIR TERMINAL SINGLE DUCT VAV REHEAT 16, Maximum Flow Fraction during Reheat [], 0.37709
 Component Sizing Information, AirTerminal:SingleDuct:VAV:Reheat, AIR TERMINAL SINGLE DUCT VAV REHEAT 16, Maximum Reheat Water Flow Rate [m3/s], 1.20095E-004
 Component Sizing Information, AirTerminal:SingleDuct:VAV:Reheat, AIR TERMINAL SINGLE DUCT VAV REHEAT 16, Reheat Coil Sizing Air Volume Flow Rate [m3/s], 0.16277
 Component Sizing Information, Coil:Heating:Water, COIL HEATING WATER 17, Maximum Water Flow Rate [m3/s], 1.20095E-004
 Component Sizing Information, Coil:Heating:Water, COIL HEATING WATER 17, Design Coil Load [W], 5527.99287
 Component Sizing Information, Coil:Heating:Water, COIL HEATING WATER 17, U-Factor Times Area Value [W/K], 147.31203
Water Heating Coil Capacity Information,Coil:Heating:Water,COIL HEATING WATER 17,6143.25
 Component Sizing Information, AirTerminal:SingleDuct:VAV:Reheat, AIR TERMINAL SINGLE DUCT VAV REHEAT 24, Maximum Air Flow Rate [m3/s], 0.18714
 Component Sizing Information, AirTerminal:SingleDuct:VAV:Reheat, AIR TERMINAL SINGLE DUCT VAV REHEAT 24, Maximum Flow per Zone Floor Area during Reheat [m3/s-m2], 2.03200E-003
 Component Sizing Information, AirTerminal:SingleDuct:VAV:Reheat, AIR TERMINAL SINGLE DUCT VAV REHEAT 24, Maximum Flow Fraction during Reheat [], 0.41733
 Component Sizing Information, AirTerminal:SingleDuct:VAV:Reheat, AIR TERMINAL SINGLE DUCT VAV REHEAT 24, Maximum Reheat Water Flow Rate [m3/s], 1.19362E-004
 Component Sizing Information, AirTerminal:SingleDuct:VAV:Reheat, AIR TERMINAL SINGLE DUCT VAV REHEAT 24, Reheat Coil Sizing Air Volume Flow Rate [m3/s], 0.16178
[...]
 Warmup Convergence Information,THERMAL ZONE 6,SizingPeriod: PHILADELPHIA INTERNATIONAL AP ANN CLG 2% CONDNS WB=>MDB,8.3637754026E-002,0.1042306273,Pass,Pass,2.6431811752E-002,3.3353474411E-002,Pass,Pass
 Warmup Convergence Information,THERMAL ZONE 21,SizingPeriod: PHILADELPHIA INTERNATIONAL AP ANN CLG 2% CONDNS WB=>MDB,6.3353090014E-002,0.1112689137,Pass,Pass,2.0445150780E-002,2.1012585927E-002,Pass,Pass
 Warmup Convergence Information,THERMAL ZONE 24,SizingPeriod: PHILADELPHIA INTERNATIONAL AP ANN CLG 2% CONDNS WB=>MDB,5.7358128517E-002,0.1076676845,Pass,Pass,2.0420592610E-002,2.1088486798E-002,Pass,Pass
 Warmup Convergence Information,THERMAL ZONE 17,SizingPeriod: PHILADELPHIA INTERNATIONAL AP ANN CLG 2% CONDNS WB=>MDB,5.1687429283E-002,7.4029968378E-002,Pass,Pass,2.0284340314E-002,1.7915017144E-002,Pass,Pass
 Warmup Convergence Information,THERMAL ZONE 15,SizingPeriod: PHILADELPHIA INTERNATIONAL AP ANN CLG 2% CONDNS WB=>MDB,6.4003902161E-002,6.7715655976E-002,Pass,Pass,2.1878254249E-002,2.4466966221E-002,Pass,Pass
 Warmup Convergence Information,THERMAL ZONE 1,SizingPeriod: PHILADELPHIA INTERNATIONAL AP ANN CLG 2% CONDNS WB=>MDB,8.3551428235E-002,0.1437397810,Pass,Pass,2.8552497976E-002,3.0497575110E-002,Pass,Pass
 Warmup Convergence Information,THERMAL ZONE 7,SizingPeriod: PHILADELPHIA INTERNATIONAL AP ANN CLG 2% CONDNS WB=>MDB,6.7446502090E-002,7.5079242486E-002,Pass,Pass,2.1926898806E-002,2.4275020644E-002,Pass,Pass
 Warmup Convergence Information,THERMAL ZONE 5,SizingPeriod: PHILADELPHIA INTERNATIONAL AP ANN CLG 2% CONDNS WB=>MDB,8.3535419377E-002,0.1008333597,Pass,Pass,3.2217927507E-002,4.3166992331E-002,Pass,Pass
 Warmup Convergence Information,THERMAL ZONE 23,SizingPeriod: PHILADELPHIA INTERNATIONAL AP ANN CLG 2% CONDNS WB=>MDB,5.1686888359E-002,7.4011364097E-002,Pass,Pass,2.0345606897E-002,1.7972171487E-002,Pass,Pass
 Warmup Convergence Information,THERMAL ZONE 4,SizingPeriod: PHILADELPHIA INTERNATIONAL AP ANN CLG 2% CONDNS WB=>MDB,5.1579927112E-002,7.3938865052E-002,Pass,Pass,1.2536330507E-002,1.1443211368E-002,Pass,Pass
 Warmup Convergence Information,THERMAL ZONE 14,SizingPeriod: PHILADELPHIA INTERNATIONAL AP ANN CLG 2% CONDNS WB=>MDB,4.3561209260E-002,6.8949147632E-002,Pass,Pass,1.3437170951E-002,1.2686440160E-002,Pass,Pass
 Warmup Convergence Information,THERMAL ZONE 8,SizingPeriod: PHILADELPHIA INTERNATIONAL AP ANN CLG 2% CONDNS WB=>MDB,1.2995243466E-004,2.8647223621E-004,Pass,Pass,6.4392417960E-003,1.1963647913E-002,Pass,Pass
 Warmup Convergence Information,THERMAL ZONE 13,SizingPeriod: PHILADELPHIA INTERNATIONAL AP ANN CLG 2% CONDNS WB=>MDB,1.2203712253E-004,2.7909728577E-004,Pass,Pass,5.8635986421E-003,1.1034433637E-002,Pass,Pass
 Warmup Convergence Information,THERMAL ZONE 20,SizingPeriod: PHILADELPHIA INTERNATIONAL AP ANN CLG 2% CONDNS WB=>MDB,5.7187397667E-002,0.1074403338,Pass,Pass,2.0365890789E-002,2.1023178245E-002,Pass,Pass
 Warmup Convergence Information,THERMAL ZONE 9,SizingPeriod: PHILADELPHIA INTERNATIONAL AP ANN CLG 2% CONDNS WB=>MDB,5.7804263863E-002,7.8550960327E-002,Pass,Pass,2.0432632929E-002,1.8072321141E-002,Pass,Pass
 Warmup Convergence Information,THERMAL ZONE 2,SizingPeriod: PHILADELPHIA INTERNATIONAL AP ANN CLG 2% CONDNS WB=>MDB,1.2512522026E-004,2.8359567285E-004,Pass,Pass,5.8876937339E-003,1.1148020441E-002,Pass,Pass
 Warmup Convergence Information,THERMAL ZONE 11,SizingPeriod: PHILADELPHIA INTERNATIONAL AP ANN CLG 2% CONDNS WB=>MDB,6.8608418833E-002,6.9125481093E-002,Pass,Pass,9.2426557649E-003,9.7808402775E-003,Pass,Pass
 Warmup Convergence Information,THERMAL ZONE 12,SizingPeriod: PHILADELPHIA INTERNATIONAL AP ANN CLG 2% CONDNS WB=>MDB,6.6457206300E-002,8.5069630667E-002,Pass,Pass,1.8648734634E-002,1.7006253005E-002,Pass,Pass
 Warmup Convergence Information,THERMAL ZONE 3,SizingPeriod: PHILADELPHIA INTERNATIONAL AP ANN CLG 2% CONDNS WB=>MDB,5.8134936207E-002,5.9915025656E-002,Pass,Pass,2.1619814833E-002,2.4249416251E-002,Pass,Pass
 Warmup Convergence Information,THERMAL ZONE 18,SizingPeriod: PHILADELPHIA INTERNATIONAL AP ANN CLG 2% CONDNS WB=>MDB,1.7350219680E-004,4.2057540583E-004,Pass,Pass,1.0160147829E-002,2.4741456616E-002,Pass,Pass
Environment,PHILADELPHIA INTERNATIONAL AP ANN CLG 1% CONDNS WB=>MDB,SizingPeriod:DesignDay,07/21,07/21,SummerDesignDay,1,N/A,N/A,N/A,N/A,N/A,N/A
Environment:Daylight Saving,No,SizingPeriod:DesignDay
Environment:Design Day Data,30.20,9.40,DefaultMultipliers,101301,240,5.0,0.00,No ,No 
Environment:Design_Day_Misc,202,1084.4,0.2082,0.1365,1.0,-6.23,20.6,ASHRAETau
Environment:WarmupDays,  6
 Warmup Convergence Information,THERMAL ZONE 19,SizingPeriod: PHILADELPHIA INTERNATIONAL AP ANN CLG 1% CONDNS WB=>MDB,1.7032280847E-002,2.8751174353E-002,Pass,Pass,2.0230043873E-002,3.5726414735E-002,Pass,Pass
 Warmup Convergence Information,THERMAL ZONE 16,SizingPeriod: PHILADELPHIA INTERNATIONAL AP ANN CLG 1% CONDNS WB=>MDB,5.0567466601E-002,4.7341574730E-002,Pass,Pass,2.1818304965E-002,2.5468761726E-002,Pass,Pass
 Warmup Convergence Information,THERMAL ZONE 25,SizingPeriod: PHILADELPHIA INTERNATIONAL AP ANN CLG 1% CONDNS WB=>MDB,3.5740748336E-002,5.9760822206E-002,Pass,Pass,1.3888984894E-002,1.6032036677E-002,Pass,Pass
 Warmup Convergence Information,THERMAL ZONE 22,SizingPeriod: PHILADELPHIA INTERNATIONAL AP ANN CLG 1% CONDNS WB=>MDB,5.6954771108E-002,0.1066242822,Pass,Pass,1.9827033832E-002,2.0571563248E-002,Pass,Pass
 Warmup Convergence Information,THERMAL ZONE 10,SizingPeriod: PHILADELPHIA INTERNATIONAL AP ANN CLG 1% CONDNS WB=>MDB,7.1411254224E-002,6.6382648987E-002,Pass,Pass,1.2814044941E-002,1.6177336971E-002,Pass,Pass
 Warmup Convergence Information,THERMAL ZONE 6,SizingPeriod: PHILADELPHIA INTERNATIONAL AP ANN CLG 1% CONDNS WB=>MDB,8.3462282846E-002,9.8582678876E-002,Pass,Pass,2.3577324178E-002,2.8381832684E-002,Pass,Pass
 Warmup Convergence Information,THERMAL ZONE 21,SizingPeriod: PHILADELPHIA INTERNATIONAL AP ANN CLG 1% CONDNS WB=>MDB,5.5658097154E-002,0.1019487836,Pass,Pass,2.0771201909E-002,2.2579711757E-002,Pass,Pass
 Warmup Convergence Information,THERMAL ZONE 24,SizingPeriod: PHILADELPHIA INTERNATIONAL AP ANN CLG 1% CONDNS WB=>MDB,4.9714295595E-002,9.5500621796E-002,Pass,Pass,2.0644583298E-002,2.1189660879E-002,Pass,Pass
 Warmup Convergence Information,THERMAL ZONE 17,SizingPeriod: PHILADELPHIA INTERNATIONAL AP ANN CLG 1% CONDNS WB=>MDB,4.3629933185E-002,6.1893762728E-002,Pass,Pass,2.0603392040E-002,1.9367367548E-002,Pass,Pass
 Warmup Convergence Information,THERMAL ZONE 15,SizingPeriod: PHILADELPHIA INTERNATIONAL AP ANN CLG 1% CONDNS WB=>MDB,5.6458629490E-002,5.5260187213E-002,Pass,Pass,2.2034912690E-002,2.5285904931E-002,Pass,Pass
 Warmup Convergence Information,THERMAL ZONE 1,SizingPeriod: PHILADELPHIA INTERNATIONAL AP ANN CLG 1% CONDNS WB=>MDB,8.3564068873E-002,0.1425108644,Pass,Pass,2.5522387960E-002,2.8141041237E-002,Pass,Pass
 Warmup Convergence Information,THERMAL ZONE 7,SizingPeriod: PHILADELPHIA INTERNATIONAL AP ANN CLG 1% CONDNS WB=>MDB,5.7982111830E-002,5.6967720600E-002,Pass,Pass,2.2050574281E-002,2.5057659496E-002,Pass,Pass
 Warmup Convergence Information,THERMAL ZONE 5,SizingPeriod: PHILADELPHIA INTERNATIONAL AP ANN CLG 1% CONDNS WB=>MDB,8.3441837110E-002,9.1139269327E-002,Pass,Pass,2.9613777328E-002,4.0368726579E-002,Pass,Pass
 Warmup Convergence Information,THERMAL ZONE 23,SizingPeriod: PHILADELPHIA INTERNATIONAL AP ANN CLG 1% CONDNS WB=>MDB,4.3769881338E-002,6.2051076867E-002,Pass,Pass,2.0648843228E-002,1.9409563976E-002,Pass,Pass
 Warmup Convergence Information,THERMAL ZONE 4,SizingPeriod: PHILADELPHIA INTERNATIONAL AP ANN CLG 1% CONDNS WB=>MDB,4.3325867474E-002,6.4620433497E-002,Pass,Pass,1.3171888144E-002,1.1864329674E-002,Pass,Pass
 Warmup Convergence Information,THERMAL ZONE 14,SizingPeriod: PHILADELPHIA INTERNATIONAL AP ANN CLG 1% CONDNS WB=>MDB,3.5330726330E-002,5.9881247909E-002,Pass,Pass,1.4048661318E-002,1.6496298561E-002,Pass,Pass
 Warmup Convergence Information,THERMAL ZONE 8,SizingPeriod: PHILADELPHIA INTERNATIONAL AP ANN CLG 1% CONDNS WB=>MDB,1.3435872330E-004,2.8810455640E-004,Pass,Pass,6.0481267939E-003,1.1757744142E-002,Pass,Pass
 Warmup Convergence Information,THERMAL ZONE 13,SizingPeriod: PHILADELPHIA INTERNATIONAL AP ANN CLG 1% CONDNS WB=>MDB,1.2419683780E-004,2.7072753596E-004,Pass,Pass,5.7158568343E-003,1.0859432651E-002,Pass,Pass
 Warmup Convergence Information,THERMAL ZONE 20,SizingPeriod: PHILADELPHIA INTERNATIONAL AP ANN CLG 1% CONDNS WB=>MDB,4.9425755054E-002,9.5310252152E-002,Pass,Pass,2.0614607731E-002,2.1003100385E-002,Pass,Pass
 Warmup Convergence Information,THERMAL ZONE 9,SizingPeriod: PHILADELPHIA INTERNATIONAL AP ANN CLG 1% CONDNS WB=>MDB,4.9864219217E-002,6.8853283911E-002,Pass,Pass,2.0732827364E-002,1.8553053240E-002,Pass,Pass
 Warmup Convergence Information,THERMAL ZONE 2,SizingPeriod: PHILADELPHIA INTERNATIONAL AP ANN CLG 1% CONDNS WB=>MDB,1.2563843331E-004,2.7501150812E-004,Pass,Pass,5.7315437466E-003,1.0969803808E-002,Pass,Pass
 Warmup Convergence Information,THERMAL ZONE 11,SizingPeriod: PHILADELPHIA INTERNATIONAL AP ANN CLG 1% CONDNS WB=>MDB,5.8849709617E-002,6.4475389014E-002,Pass,Pass,9.9909176504E-003,1.0088188783E-002,Pass,Pass
 Warmup Convergence Information,THERMAL ZONE 12,SizingPeriod: PHILADELPHIA INTERNATIONAL AP ANN CLG 1% CONDNS WB=>MDB,5.6768674055E-002,7.6767744433E-002,Pass,Pass,1.8957811462E-002,1.7044161713E-002,Pass,Pass
 Warmup Convergence Information,THERMAL ZONE 3,SizingPeriod: PHILADELPHIA INTERNATIONAL AP ANN CLG 1% CONDNS WB=>MDB,5.0409485215E-002,4.7260301914E-002,Pass,Pass,2.1802757884E-002,2.5470085226E-002,Pass,Pass
 Warmup Convergence Information,THERMAL ZONE 18,SizingPeriod: PHILADELPHIA INTERNATIONAL AP ANN CLG 1% CONDNS WB=>MDB,1.7810296948E-004,4.2886972796E-004,Pass,Pass,9.1830683040E-003,2.1232740782E-002,Pass,Pass
Environment,PHILADELPHIA INTERNATIONAL AP ANN HUM_N 99% CONDNS DP=>MCDB,SizingPeriod:DesignDay,01/21,01/21,WinterDesignDay,1,N/A,N/A,N/A,N/A,N/A,N/A
Environment:Daylight Saving,No,SizingPeriod:DesignDay
Environment:Design Day Data,-6.70,0.00,DefaultMultipliers,101301,290,5.2,0.00,No ,No 
Environment:Design_Day_Misc, 21,1229.0,0.1415,5.7310E-002,1.0,-11.15,-20.1,ASHRAEClearSky
Environment:WarmupDays,  6
 Warmup Convergence Information,THERMAL ZONE 19,SizingPeriod: PHILADELPHIA INTERNATIONAL AP ANN HUM_N 99% CONDNS DP=>MCDB,1.4969035196E-003,1.0374763022E-003,Pass,Pass,3.4553772360E-003,3.6225559892E-003,Pass,Pass
 Warmup Convergence Information,THERMAL ZONE 16,SizingPeriod: PHILADELPHIA INTERNATIONAL AP ANN HUM_N 99% CONDNS DP=>MCDB,1.9380998309E-003,2.5679561578E-003,Pass,Pass,7.6015024327E-003,4.3887805397E-002,Pass,Pass
 Warmup Convergence Information,THERMAL ZONE 25,SizingPeriod: PHILADELPHIA INTERNATIONAL AP ANN HUM_N 99% CONDNS DP=>MCDB,1.7055012016E-002,7.0549685336E-002,Pass,Pass,6.2925592822E-003,2.8544389061E-002,Pass,Pass
 Warmup Convergence Information,THERMAL ZONE 22,SizingPeriod: PHILADELPHIA INTERNATIONAL AP ANN HUM_N 99% CONDNS DP=>MCDB,1.9059352719E-002,8.2963430462E-002,Pass,Pass,8.0386435192E-003,3.9568001628E-002,Pass,Pass
 Warmup Convergence Information,THERMAL ZONE 10,SizingPeriod: PHILADELPHIA INTERNATIONAL AP ANN HUM_N 99% CONDNS DP=>MCDB,1.9626057617E-002,7.8197829764E-002,Pass,Pass,4.6835863620E-003,1.8136419723E-002,Pass,Pass
 Warmup Convergence Information,THERMAL ZONE 6,SizingPeriod: PHILADELPHIA INTERNATIONAL AP ANN HUM_N 99% CONDNS DP=>MCDB,1.8831254945E-002,7.7602349970E-002,Pass,Pass,4.3554581378E-003,1.8897205951E-002,Pass,Pass
 Warmup Convergence Information,THERMAL ZONE 21,SizingPeriod: PHILADELPHIA INTERNATIONAL AP ANN HUM_N 99% CONDNS DP=>MCDB,3.0181034159E-003,3.1294290755E-003,Pass,Pass,8.2692285904E-003,4.4196463854E-002,Pass,Pass
 Warmup Convergence Information,THERMAL ZONE 24,SizingPeriod: PHILADELPHIA INTERNATIONAL AP ANN HUM_N 99% CONDNS DP=>MCDB,1.6196465058E-003,2.0466153184E-003,Pass,Pass,7.2831281393E-003,4.4362910091E-002,Pass,Pass
 Warmup Convergence Information,THERMAL ZONE 17,SizingPeriod: PHILADELPHIA INTERNATIONAL AP ANN HUM_N 99% CONDNS DP=>MCDB,2.3902070521E-003,2.9314776753E-003,Pass,Pass,7.7763083236E-003,4.3914180003E-002,Pass,Pass
 Warmup Convergence Information,THERMAL ZONE 15,SizingPeriod: PHILADELPHIA INTERNATIONAL AP ANN HUM_N 99% CONDNS DP=>MCDB,2.4799735981E-003,2.6133795002E-003,Pass,Pass,7.5285161561E-003,4.2908365221E-002,Pass,Pass
 Warmup Convergence Information,THERMAL ZONE 1,SizingPeriod: PHILADELPHIA INTERNATIONAL AP ANN HUM_N 99% CONDNS DP=>MCDB,1.8948899696E-002,7.7599972578E-002,Pass,Pass,4.4528740629E-003,1.8867711572E-002,Pass,Pass
 Warmup Convergence Information,THERMAL ZONE 7,SizingPeriod: PHILADELPHIA INTERNATIONAL AP ANN HUM_N 99% CONDNS DP=>MCDB,4.0867680280E-003,1.4687637492E-002,Pass,Pass,8.6093271210E-003,5.2152938357E-002,Pass,Pass
 Warmup Convergence Information,THERMAL ZONE 5,SizingPeriod: PHILADELPHIA INTERNATIONAL AP ANN HUM_N 99% CONDNS DP=>MCDB,1.8848562036E-002,7.7380806717E-002,Pass,Pass,4.4464896731E-003,1.8861754099E-002,Pass,Pass
 Warmup Convergence Information,THERMAL ZONE 23,SizingPeriod: PHILADELPHIA INTERNATIONAL AP ANN HUM_N 99% CONDNS DP=>MCDB,2.2977891255E-003,2.3731930121E-003,Pass,Pass,8.5235849680E-003,4.4284237212E-002,Pass,Pass
 Warmup Convergence Information,THERMAL ZONE 4,SizingPeriod: PHILADELPHIA INTERNATIONAL AP ANN HUM_N 99% CONDNS DP=>MCDB,1.7394701722E-002,7.1176601785E-002,Pass,Pass,6.3852483298E-003,2.7981918124E-002,Pass,Pass
 Warmup Convergence Information,THERMAL ZONE 14,SizingPeriod: PHILADELPHIA INTERNATIONAL AP ANN HUM_N 99% CONDNS DP=>MCDB,1.7038642866E-002,7.0259486801E-002,Pass,Pass,6.4958432431E-003,2.9367998578E-002,Pass,Pass
 Warmup Convergence Information,THERMAL ZONE 8,SizingPeriod: PHILADELPHIA INTERNATIONAL AP ANN HUM_N 99% CONDNS DP=>MCDB,1.0111403902E-003,6.7780762541E-004,Pass,Pass,4.7188279118E-003,4.1910523260E-003,Pass,Pass
 Warmup Convergence Information,THERMAL ZONE 13,SizingPeriod: PHILADELPHIA INTERNATIONAL AP ANN HUM_N 99% CONDNS DP=>MCDB,9.5850815770E-004,6.8809190435E-004,Pass,Pass,4.3541681142E-003,4.1425896774E-003,Pass,Pass
 Warmup Convergence Information,THERMAL ZONE 20,SizingPeriod: PHILADELPHIA INTERNATIONAL AP ANN HUM_N 99% CONDNS DP=>MCDB,2.2905327550E-003,2.7284927236E-003,Pass,Pass,7.5884809964E-003,4.3443489357E-002,Pass,Pass
 Warmup Convergence Information,THERMAL ZONE 9,SizingPeriod: PHILADELPHIA INTERNATIONAL AP ANN HUM_N 99% CONDNS DP=>MCDB,1.9110728992E-003,2.5188278252E-003,Pass,Pass,7.5597561945E-003,4.3911565072E-002,Pass,Pass
 Warmup Convergence Information,THERMAL ZONE 2,SizingPeriod: PHILADELPHIA INTERNATIONAL AP ANN HUM_N 99% CONDNS DP=>MCDB,8.2388899118E-004,5.9302529406E-004,Pass,Pass,3.9990306520E-003,3.9310767823E-003,Pass,Pass
 Warmup Convergence Information,THERMAL ZONE 11,SizingPeriod: PHILADELPHIA INTERNATIONAL AP ANN HUM_N 99% CONDNS DP=>MCDB,1.9105612101E-002,8.3251790318E-002,Pass,Pass,7.8782235946E-003,3.8857457739E-002,Pass,Pass
 Warmup Convergence Information,THERMAL ZONE 12,SizingPeriod: PHILADELPHIA INTERNATIONAL AP ANN HUM_N 99% CONDNS DP=>MCDB,1.8604686817E-002,8.1991668636E-002,Pass,Pass,8.1457659439E-003,3.9612449362E-002,Pass,Pass
 Warmup Convergence Information,THERMAL ZONE 3,SizingPeriod: PHILADELPHIA INTERNATIONAL AP ANN HUM_N 99% CONDNS DP=>MCDB,2.8908459605E-003,2.7989291432E-003,Pass,Pass,8.2716461073E-003,4.3150966911E-002,Pass,Pass
 Warmup Convergence Information,THERMAL ZONE 18,SizingPeriod: PHILADELPHIA INTERNATIONAL AP ANN HUM_N 99% CONDNS DP=>MCDB,1.9172229589E-003,1.5429157090E-003,Pass,Pass,1.4061194890E-002,7.7319695002E-002,Pass,Pass
Environment,RUN PERIOD 1,WeatherFileRunPeriod,01/01,12/31,Thursday,365,Use RunPeriod Specified Day,Yes,Yes,No ,Yes,Yes
Environment:Daylight Saving,Yes,InputFile,03/08,11/01
Environment:WarmupDays,  6
 Warmup Convergence Information,THERMAL ZONE 19,RunPeriod: RUN PERIOD 1,6.4976073421E-002,0.1389471988,Pass,Pass,6.8772054228E-002,0.1683333792,Pass,Pass
 Warmup Convergence Information,THERMAL ZONE 16,RunPeriod: RUN PERIOD 1,1.1668258259E-002,3.6904597530E-002,Pass,Pass,0.2743475182,0.6778043749,Pass,Pass
 Warmup Convergence Information,THERMAL ZONE 25,RunPeriod: RUN PERIOD 1,1.7494559349E-003,1.5673756535E-003,Pass,Pass,0.2329280981,0.6212534552,Pass,Pass
 Warmup Convergence Information,THERMAL ZONE 22,RunPeriod: RUN PERIOD 1,2.2176041354E-003,2.1654714341E-003,Pass,Pass,0.2603613240,0.6307541802,Pass,Pass
 Warmup Convergence Information,THERMAL ZONE 10,RunPeriod: RUN PERIOD 1,2.2925825029E-003,2.1357420831E-003,Pass,Pass,5.8974293887E-002,0.1382952854,Pass,Pass
 Warmup Convergence Information,THERMAL ZONE 6,RunPeriod: RUN PERIOD 1,8.2545485076E-002,0.1525165026,Pass,Pass,0.7651904163,5.8554375366,Pass,Pass
 Warmup Convergence Information,THERMAL ZONE 21,RunPeriod: RUN PERIOD 1,2.0313952933E-003,1.8065734791E-003,Pass,Pass,0.1545967677,0.5777293001,Pass,Pass
 Warmup Convergence Information,THERMAL ZONE 24,RunPeriod: RUN PERIOD 1,1.8669488219E-003,1.5953136204E-003,Pass,Pass,0.1547767484,0.6099685078,Pass,Pass
 Warmup Convergence Information,THERMAL ZONE 17,RunPeriod: RUN PERIOD 1,8.4828390995E-002,0.1549356402,Pass,Pass,0.7779037190,4.5614702448,Pass,Pass
 Warmup Convergence Information,THERMAL ZONE 15,RunPeriod: RUN PERIOD 1,1.1674637350E-002,3.7816435508E-002,Pass,Pass,0.2730025085,0.6433957692,Pass,Pass
 Warmup Convergence Information,THERMAL ZONE 1,RunPeriod: RUN PERIOD 1,2.1809756806E-003,2.0444234803E-003,Pass,Pass,0.4761445132,1.6832762303,Pass,Pass
 Warmup Convergence Information,THERMAL ZONE 7,RunPeriod: RUN PERIOD 1,2.1437299674E-003,2.0495637552E-003,Pass,Pass,0.1717835905,0.4493482297,Pass,Pass
 Warmup Convergence Information,THERMAL ZONE 5,RunPeriod: RUN PERIOD 1,1.8912394565E-002,5.4578268157E-002,Pass,Pass,0.1939903848,0.8756001688,Pass,Pass
 Warmup Convergence Information,THERMAL ZONE 23,RunPeriod: RUN PERIOD 1,8.4565774424E-002,0.1552267035,Pass,Pass,2.3579332539,21.2091997547,Pass,Pass
 Warmup Convergence Information,THERMAL ZONE 4,RunPeriod: RUN PERIOD 1,1.8179734484E-003,1.9812422695E-003,Pass,Pass,0.2249680076,0.5660993300,Pass,Pass
 Warmup Convergence Information,THERMAL ZONE 14,RunPeriod: RUN PERIOD 1,1.8045096098E-003,1.4654260748E-003,Pass,Pass,0.2316457003,0.6357032815,Pass,Pass
 Warmup Convergence Information,THERMAL ZONE 8,RunPeriod: RUN PERIOD 1,8.4506001782E-002,0.1618830604,Pass,Pass,2.7623295237E-002,5.9151055799E-002,Pass,Pass
 Warmup Convergence Information,THERMAL ZONE 13,RunPeriod: RUN PERIOD 1,8.2165179347E-002,0.1620660529,Pass,Pass,2.6539959767E-002,5.5747077308E-002,Pass,Pass
 Warmup Convergence Information,THERMAL ZONE 20,RunPeriod: RUN PERIOD 1,1.7932471203E-003,1.7374621904E-003,Pass,Pass,0.1634487407,0.6202153791,Pass,Pass
 Warmup Convergence Information,THERMAL ZONE 9,RunPeriod: RUN PERIOD 1,8.4307852455E-002,0.1571927951,Pass,Pass,0.5293843041,2.7621097269,Pass,Pass
 Warmup Convergence Information,THERMAL ZONE 2,RunPeriod: RUN PERIOD 1,8.6077206340E-002,0.1673804099,Pass,Pass,2.4091502056E-002,5.0101335583E-002,Pass,Pass
 Warmup Convergence Information,THERMAL ZONE 11,RunPeriod: RUN PERIOD 1,1.8671892347E-003,1.8690881620E-003,Pass,Pass,6.1383665798E-002,0.1464882850,Pass,Pass
 Warmup Convergence Information,THERMAL ZONE 12,RunPeriod: RUN PERIOD 1,6.0597214005E-002,0.1256795425,Pass,Pass,0.2150667457,0.5337851661,Pass,Pass
 Warmup Convergence Information,THERMAL ZONE 3,RunPeriod: RUN PERIOD 1,1.0404536231E-002,3.1855950141E-002,Pass,Pass,0.2531391513,0.5745026242,Pass,Pass
 Warmup Convergence Information,THERMAL ZONE 18,RunPeriod: RUN PERIOD 1,5.0859269890E-002,0.1186271441,Pass,Pass,0.1676567635,0.8391779409,Pass,Pass
! <Program Control Information:Threads/Parallel Sims>, Threading Supported,Maximum Number of Threads, Env Set Threads (OMP_NUM_THREADS), EP Env Set Threads (EP_OMP_NUM_THREADS), IDF Set Threads, Number of Threads Used (Interior Radiant Exchange), Number Nominal Surfaces, Number Parallel Sims
Program Control:Threads/Parallel Sims, Yes,1, Not Set, Not Set, 1, 1, 170, N/A
End of Data
