Program Version,EnergyPlus-Linux-OMP-32 7.2.0.006, YMD=2013.06.14 05:30
! <Version>, Version ID
 Version, 7.2
! <Timesteps per Hour>, #TimeSteps, Minutes per TimeStep {minutes}
 Timesteps per Hour,  4, 15
! <System Convergence Limits>, Minimum System TimeStep {minutes}, Max HVAC Iterations,  Minimum Plant Iterations, Maximum Plant Iterations
 System Convergence Limits, 1, 20, 2, 8
! <Simulation Control>, Do Zone Sizing, Do System Sizing, Do Plant Sizing, Do Design Days, Do Weather Simulation
 Simulation Control, Yes, Yes, Yes, Yes, Yes
! <Output Reporting Tolerances>, Tolerance for Time Heating Setpoint Not Met, Tolerance for Time Cooling Setpoint Not Met
 Output Reporting Tolerances, 0.200, 0.200, 
! <Site:GroundTemperature:BuildingSurface>, Months From Jan to Dec {Deg C}
 Site:GroundTemperature:BuildingSurface,  18.00,  18.00,  18.00,  18.00,  18.00,  18.00,  18.00,  18.00,  18.00,  18.00,  18.00,  18.00
! <Site:GroundTemperature:FCfactorMethod>, Months From Jan to Dec {Deg C}
 Site:GroundTemperature:FCfactorMethod,  -1.89,  -3.06,  -0.99,   2.23,  10.68,  17.20,  21.60,  22.94,  20.66,  15.60,   8.83,   2.56
! <Site:GroundTemperature:Shallow>, Months From Jan to Dec {Deg C}
 Site:GroundTemperature:Shallow,  13.00,  13.00,  13.00,  13.00,  13.00,  13.00,  13.00,  13.00,  13.00,  13.00,  13.00,  13.00
! <Site:GroundTemperature:Deep>, Months From Jan to Dec {Deg C}
 Site:GroundTemperature:Deep,  16.00,  16.00,  16.00,  16.00,  16.00,  16.00,  16.00,  16.00,  16.00,  16.00,  16.00,  16.00
! <Site:GroundReflectance>, Months From Jan to Dec {dimensionless}
 Site:GroundReflectance,  0.20,  0.20,  0.20,  0.20,  0.20,  0.20,  0.20,  0.20,  0.20,  0.20,  0.20,  0.20
! <Site:GroundReflectance:SnowModifier>, Normal, Daylighting {dimensionless}
 Site:GroundReflectance:SnowModifier,   1.000,   1.000
! <Site:GroundReflectance:Snow>, Months From Jan to Dec {dimensionless}
 Site:GroundReflectance:Snow,  0.20,  0.20,  0.20,  0.20,  0.20,  0.20,  0.20,  0.20,  0.20,  0.20,  0.20,  0.20
! <Site:GroundReflectance:Snow:Daylighting>, Months From Jan to Dec {dimensionless}
 Site:GroundReflectance:Snow:Daylighting,  0.20,  0.20,  0.20,  0.20,  0.20,  0.20,  0.20,  0.20,  0.20,  0.20,  0.20,  0.20
! <Environment:Weather Station>,Wind Sensor Height Above Ground {m},Wind Speed Profile Exponent {},Wind Speed Profile Boundary Layer Thickness {m},Air Temperature Sensor Height Above Ground {m},Wind Speed Modifier Coefficient [Internal],Temperature Modifier Coefficient [Internal]
Environment:Weather Station,10.000,0.140,270.000,1.500,1.586,9.750E-003
! <Site:Location>, Location Name, Latitude {N+/S- Deg}, Longitude {E+/W- Deg},  Time Zone Number {GMT+/-}, Elevation {m},  Standard Pressure at Elevation {Pa}, Standard RhoAir at Elevation
Site:Location,Chicago Ohare Intl Ap IL USA TMY3 WMO#=725300,41.98,-87.92,-6.00,201.00,98934,1.1759
! <Building Information>, Building Name,North Axis {deg},Terrain,  Loads Convergence Tolerance Value,Temperature Convergence Tolerance Value,  Solar Distribution,Maximum Number of Warmup Days,Minimum Number of Warmup Days
 Building Information,Building 1,0.000,Suburbs,4.00000E-002,0.40000,FullExterior,25,6
! <Inside Convection Algorithm>, Algorithm {Simple | TARP | CeilingDiffuser | AdaptiveConvectionAlgorithm}
Inside Convection Algorithm,TARP
! <Outside Convection Algorithm>, Algorithm {SimpleCombined | TARP | MoWitt | DOE-2 | AdaptiveConvectionAlgorithm}
Outside Convection Algorithm,DOE-2
! <Sky Radiance Distribution>, Value {Anisotropic}
Sky Radiance Distribution,Anisotropic
! <Zone Air Solution Algorithm>, Value {ThirdOrderBackwardDifference | AnalyticalSolution | EulerMethod}
 Zone Air Solution Algorithm, ThirdOrderBackwardDifference
! <Zone Air Contaminant Balance Simulation>, Simulation {Yes/No}, Carbon Dioxide Concentration
 Zone Air Carbon Dioxide Balance Simulation, No,N/A
! <Zone Air Contaminant Balance Simulation>, Simulation {Yes/No}, Generic Contaminant Concentration
 Zone Air Generic Contaminant Balance Simulation, No,N/A
! <Environment:Site Atmospheric Variation>,Wind Speed Profile Exponent {},Wind Speed Profile Boundary Layer Thickness {m},Air Temperature Gradient Coefficient {K/m}
Environment:Site Atmospheric Variation,0.220,370.000,6.500000E-003
! <SurfaceGeometry>,Starting Corner,Vertex Input Direction,Coordinate System,Daylight Reference Point Coordinate System,Rectangular (Simple) Surface Coordinate System
 Surface Geometry,UpperLeftCorner,Counterclockwise,RelativeCoordinateSystem,RelativeCoordinateSystem,RelativeToZoneOrigin
! <Surface Heat Transfer Algorithm>, Value {CTF - ConductionTransferFunction | EMPD - MoisturePenetrationDepthConductionTransferFunction | CondFD - ConductionFiniteDifference | HAMT - CombinedHeatAndMoistureFiniteElement} - Description,Inside Surface Max Temperature Limit{C}, Surface Convection Coefficient Lower Limit {W/m2-K}, Surface Convection Coefficient Upper Limit {W/m2-K}
Surface Heat Transfer Algorithm, CTF - ConductionTransferFunction,200,0.10,1000.0
! <Shading Summary>, Number of Fixed Detached Shades, Number of Building Detached Shades, Number of Attached Shades
 Shading Summary,0,0,0
! <Zone Summary>, Number of Zones, Number of Zone Surfaces, Number of SubSurfaces
 Zone Summary,20,136,16
! <Zone Information>,Zone Name,North Axis {deg},Origin X-Coordinate {m},Origin Y-Coordinate {m},Origin Z-Coordinate {m},Centroid X-Coordinate {m},Centroid Y-Coordinate {m},Centroid Z-Coordinate {m},Type,Zone Multiplier,Zone List Multiplier,Minimum X {m},Maximum X {m},Minimum Y {m},Maximum Y {m},Minimum Z {m},Maximum Z {m},Ceiling Height {m},Volume {m3},Zone Inside Convection Algorithm {Simple-Detailed-CeilingDiffuser-TrombeWall},Zone Outside Convection Algorithm {Simple-Detailed-Tarp-MoWitt-DOE-2-BLAST}, Floor Area {m2},Exterior Gross Wall Area {m2},Exterior Net Wall Area {m2},Exterior Window Area {m2}, Number of Surfaces, Number of SubSurfaces, Number of Shading SubSurfaces,  Part of Total Building Area
 Zone Information, THERMAL ZONE 11,0.0,3.00,3.00,8.00,5.59,5.59,10.00,1,1,1,3.00,8.18,3.00,8.18,8.00,12.00,4.00,107.34,TARP,DOE-2,26.84,0.00,0.00,0.00,6,0,0,Yes
 Zone Information, THERMAL ZONE 1,0.0,3.00,8.18,12.00,5.59,9.98,14.00,1,1,1,0.00,11.18,8.18,11.18,12.00,16.00,4.00,98.16,TARP,DOE-2,24.54,44.72,38.01,6.71,6,1,0,Yes
 Zone Information, THERMAL ZONE 15,0.0,8.18,3.00,12.00,9.98,5.59,14.00,1,1,1,8.18,11.18,0.00,11.18,12.00,16.00,4.00,98.16,TARP,DOE-2,24.54,44.72,38.01,6.71,6,1,0,Yes
 Zone Information, THERMAL ZONE 3,0.0,3.00,8.18,0.00,5.59,9.98,2.00,1,1,1,0.00,11.18,8.18,11.18,0.00,4.00,4.00,98.16,TARP,DOE-2,24.54,44.72,38.01,6.71,6,1,0,Yes
 Zone Information, THERMAL ZONE 9,0.0,0.00,0.00,4.00,1.20,5.59,6.00,1,1,1,0.00,3.00,0.00,11.18,4.00,8.00,4.00,98.16,TARP,DOE-2,24.54,44.72,38.01,6.71,6,1,0,Yes
 Zone Information, THERMAL ZONE 14,0.0,0.00,0.00,4.00,5.59,1.20,6.00,1,1,1,0.00,11.18,0.00,3.00,4.00,8.00,4.00,98.16,TARP,DOE-2,24.54,44.72,38.01,6.71,6,1,0,Yes
 Zone Information, THERMAL ZONE 8,0.0,0.00,0.00,8.00,1.20,5.59,10.00,1,1,1,0.00,3.00,0.00,11.18,8.00,12.00,4.00,98.16,TARP,DOE-2,24.54,44.72,38.01,6.71,6,1,0,Yes
 Zone Information, THERMAL ZONE 16,0.0,0.00,0.00,12.00,5.59,1.20,14.00,1,1,1,0.00,11.18,0.00,3.00,12.00,16.00,4.00,98.16,TARP,DOE-2,24.54,44.72,38.01,6.71,6,1,0,Yes
 Zone Information, THERMAL ZONE 13,0.0,0.00,0.00,8.00,5.59,1.20,10.00,1,1,1,0.00,11.18,0.00,3.00,8.00,12.00,4.00,98.16,TARP,DOE-2,24.54,44.72,38.01,6.71,6,1,0,Yes
 Zone Information, THERMAL ZONE 17,0.0,8.18,3.00,4.00,9.98,5.59,6.00,1,1,1,8.18,11.18,0.00,11.18,4.00,8.00,4.00,98.16,TARP,DOE-2,24.54,44.72,38.01,6.71,6,1,0,Yes
 Zone Information, THERMAL ZONE 2,0.0,8.18,3.00,8.00,9.98,5.59,10.00,1,1,1,8.18,11.18,0.00,11.18,8.00,12.00,4.00,98.16,TARP,DOE-2,24.54,44.72,38.01,6.71,6,1,0,Yes
 Zone Information, THERMAL ZONE 20,0.0,0.00,0.00,0.00,1.20,5.59,2.00,1,1,1,0.00,3.00,0.00,11.18,0.00,4.00,4.00,98.16,TARP,DOE-2,24.54,44.72,38.01,6.71,6,1,0,Yes
 Zone Information, THERMAL ZONE 19,0.0,8.18,3.00,0.00,9.98,5.59,2.00,1,1,1,8.18,11.18,0.00,11.18,0.00,4.00,4.00,98.16,TARP,DOE-2,24.54,44.72,38.01,6.71,6,1,0,Yes
 Zone Information, THERMAL ZONE 12,0.0,3.00,3.00,4.00,5.59,5.59,6.00,1,1,1,3.00,8.18,3.00,8.18,4.00,8.00,4.00,107.34,TARP,DOE-2,26.84,0.00,0.00,0.00,6,0,0,Yes
 Zone Information, THERMAL ZONE 6,0.0,3.00,3.00,0.00,5.59,5.59,2.00,1,1,1,3.00,8.18,3.00,8.18,0.00,4.00,4.00,107.34,TARP,DOE-2,26.84,0.00,0.00,0.00,6,0,0,Yes
 Zone Information, THERMAL ZONE 7,0.0,3.00,8.18,4.00,5.59,9.98,6.00,1,1,1,0.00,11.18,8.18,11.18,4.00,8.00,4.00,98.16,TARP,DOE-2,24.54,44.72,38.01,6.71,6,1,0,Yes
 Zone Information, THERMAL ZONE 10,0.0,0.00,0.00,0.00,5.59,1.20,2.00,1,1,1,0.00,11.18,0.00,3.00,0.00,4.00,4.00,98.16,TARP,DOE-2,24.54,44.72,38.01,6.71,6,1,0,Yes
 Zone Information, THERMAL ZONE 18,0.0,0.00,0.00,12.00,1.20,5.59,14.00,1,1,1,0.00,3.00,0.00,11.18,12.00,16.00,4.00,98.16,TARP,DOE-2,24.54,44.72,38.01,6.71,6,1,0,Yes
 Zone Information, THERMAL ZONE 5,0.0,3.00,3.00,12.00,5.59,5.59,14.00,1,1,1,3.00,8.18,3.00,8.18,12.00,16.00,4.00,107.34,TARP,DOE-2,26.84,0.00,0.00,0.00,6,0,0,Yes
 Zone Information, THERMAL ZONE 4,0.0,3.00,8.18,8.00,5.59,9.98,10.00,1,1,1,0.00,11.18,8.18,11.18,8.00,12.00,4.00,98.16,TARP,DOE-2,24.54,44.72,38.01,6.71,6,1,0,Yes
! <Zone Internal Gains/Equipment Information - Nominal>,Zone Name, Floor Area {m2},# Occupants,Area per Occupant {m2/person},Occupant per Area {person/m2},Interior Lighting {W/m2},Electric Load {W/m2},Gas Load {W/m2},Other Load {W/m2},Hot Water Eq {W/m2},Steam Equipment {W/m2},Sum Loads per Area {W/m2},Outdoor Controlled Baseboard Heat
 Zone Internal Gains, THERMAL ZONE 11,26.84,1.4,18.581,5.382E-002,10.764,10.764,0.000,0.000,0.000,0.000,21.528,No
 Zone Internal Gains, THERMAL ZONE 1,24.54,1.3,18.581,5.382E-002,10.764,10.764,0.000,0.000,0.000,0.000,21.528,No
 Zone Internal Gains, THERMAL ZONE 15,24.54,1.3,18.581,5.382E-002,10.764,10.764,0.000,0.000,0.000,0.000,21.528,No
 Zone Internal Gains, THERMAL ZONE 3,24.54,1.3,18.581,5.382E-002,10.764,10.764,0.000,0.000,0.000,0.000,21.528,No
 Zone Internal Gains, THERMAL ZONE 9,24.54,1.3,18.581,5.382E-002,10.764,10.764,0.000,0.000,0.000,0.000,21.528,No
 Zone Internal Gains, THERMAL ZONE 14,24.54,1.3,18.581,5.382E-002,10.764,10.764,0.000,0.000,0.000,0.000,21.528,No
 Zone Internal Gains, THERMAL ZONE 8,24.54,1.3,18.581,5.382E-002,10.764,10.764,0.000,0.000,0.000,0.000,21.528,No
 Zone Internal Gains, THERMAL ZONE 16,24.54,1.3,18.581,5.382E-002,10.764,10.764,0.000,0.000,0.000,0.000,21.528,No
 Zone Internal Gains, THERMAL ZONE 13,24.54,1.3,18.581,5.382E-002,10.764,10.764,0.000,0.000,0.000,0.000,21.528,No
 Zone Internal Gains, THERMAL ZONE 17,24.54,1.3,18.581,5.382E-002,10.764,10.764,0.000,0.000,0.000,0.000,21.528,No
 Zone Internal Gains, THERMAL ZONE 2,24.54,1.3,18.581,5.382E-002,10.764,10.764,0.000,0.000,0.000,0.000,21.528,No
 Zone Internal Gains, THERMAL ZONE 20,24.54,1.3,18.581,5.382E-002,10.764,10.764,0.000,0.000,0.000,0.000,21.528,No
 Zone Internal Gains, THERMAL ZONE 19,24.54,1.3,18.581,5.382E-002,10.764,10.764,0.000,0.000,0.000,0.000,21.528,No
 Zone Internal Gains, THERMAL ZONE 12,26.84,1.4,18.581,5.382E-002,10.764,10.764,0.000,0.000,0.000,0.000,21.528,No
 Zone Internal Gains, THERMAL ZONE 6,26.84,1.4,18.581,5.382E-002,10.764,10.764,0.000,0.000,0.000,0.000,21.528,No
 Zone Internal Gains, THERMAL ZONE 7,24.54,1.3,18.581,5.382E-002,10.764,10.764,0.000,0.000,0.000,0.000,21.528,No
 Zone Internal Gains, THERMAL ZONE 10,24.54,1.3,18.581,5.382E-002,10.764,10.764,0.000,0.000,0.000,0.000,21.528,No
 Zone Internal Gains, THERMAL ZONE 18,24.54,1.3,18.581,5.382E-002,10.764,10.764,0.000,0.000,0.000,0.000,21.528,No
 Zone Internal Gains, THERMAL ZONE 5,26.84,1.4,18.581,5.382E-002,10.764,10.764,0.000,0.000,0.000,0.000,21.528,No
 Zone Internal Gains, THERMAL ZONE 4,24.54,1.3,18.581,5.382E-002,10.764,10.764,0.000,0.000,0.000,0.000,21.528,No
! <People Internal Gains - Nominal>,Name,Schedule Name,Zone Name,Zone Floor Area {m2},# Zone Occupants,Number of People {},People/Floor Area {person/m2},Floor Area per person {m2/person},Fraction Radiant,Fraction Convected,Sensible Fraction Calculation,Activity level,ASHRAE 55 Warnings,Carbon Dioxide Generation Rate 
 People Internal Gains, THERMAL ZONE 1 ASHRAE_90.1-2004 CLIMATEZONE 1-8 SMALLOFFICE WHOLEBUILDING PEOPLE,SMALL OFFICE_BLDG_OCC,THERMAL ZONE 1,24.54,1.3,1.3,5.382E-002,18.581,0.300,0.700,AutoCalculate,SMALL OFFICE_ACTIVITY,No,3.8200E-008
 People Internal Gains, THERMAL ZONE 10 ASHRAE_90.1-2004 CLIMATEZONE 1-8 SMALLOFFICE WHOLEBUILDING PEOPLE,SMALL OFFICE_BLDG_OCC,THERMAL ZONE 10,24.54,1.3,1.3,5.382E-002,18.581,0.300,0.700,AutoCalculate,SMALL OFFICE_ACTIVITY,No,3.8200E-008
 People Internal Gains, THERMAL ZONE 11 ASHRAE_90.1-2004 CLIMATEZONE 1-8 SMALLOFFICE WHOLEBUILDING PEOPLE,SMALL OFFICE_BLDG_OCC,THERMAL ZONE 11,26.84,1.4,1.4,5.382E-002,18.581,0.300,0.700,AutoCalculate,SMALL OFFICE_ACTIVITY,No,3.8200E-008
 People Internal Gains, THERMAL ZONE 12 ASHRAE_90.1-2004 CLIMATEZONE 1-8 SMALLOFFICE WHOLEBUILDING PEOPLE,SMALL OFFICE_BLDG_OCC,THERMAL ZONE 12,26.84,1.4,1.4,5.382E-002,18.581,0.300,0.700,AutoCalculate,SMALL OFFICE_ACTIVITY,No,3.8200E-008
 People Internal Gains, THERMAL ZONE 13 ASHRAE_90.1-2004 CLIMATEZONE 1-8 SMALLOFFICE WHOLEBUILDING PEOPLE,SMALL OFFICE_BLDG_OCC,THERMAL ZONE 13,24.54,1.3,1.3,5.382E-002,18.581,0.300,0.700,AutoCalculate,SMALL OFFICE_ACTIVITY,No,3.8200E-008
 People Internal Gains, THERMAL ZONE 14 ASHRAE_90.1-2004 CLIMATEZONE 1-8 SMALLOFFICE WHOLEBUILDING PEOPLE,SMALL OFFICE_BLDG_OCC,THERMAL ZONE 14,24.54,1.3,1.3,5.382E-002,18.581,0.300,0.700,AutoCalculate,SMALL OFFICE_ACTIVITY,No,3.8200E-008
 People Internal Gains, THERMAL ZONE 15 ASHRAE_90.1-2004 CLIMATEZONE 1-8 SMALLOFFICE WHOLEBUILDING PEOPLE,SMALL OFFICE_BLDG_OCC,THERMAL ZONE 15,24.54,1.3,1.3,5.382E-002,18.581,0.300,0.700,AutoCalculate,SMALL OFFICE_ACTIVITY,No,3.8200E-008
 People Internal Gains, THERMAL ZONE 16 ASHRAE_90.1-2004 CLIMATEZONE 1-8 SMALLOFFICE WHOLEBUILDING PEOPLE,SMALL OFFICE_BLDG_OCC,THERMAL ZONE 16,24.54,1.3,1.3,5.382E-002,18.581,0.300,0.700,AutoCalculate,SMALL OFFICE_ACTIVITY,No,3.8200E-008
 People Internal Gains, THERMAL ZONE 17 ASHRAE_90.1-2004 CLIMATEZONE 1-8 SMALLOFFICE WHOLEBUILDING PEOPLE,SMALL OFFICE_BLDG_OCC,THERMAL ZONE 17,24.54,1.3,1.3,5.382E-002,18.581,0.300,0.700,AutoCalculate,SMALL OFFICE_ACTIVITY,No,3.8200E-008
 People Internal Gains, THERMAL ZONE 18 ASHRAE_90.1-2004 CLIMATEZONE 1-8 SMALLOFFICE WHOLEBUILDING PEOPLE,SMALL OFFICE_BLDG_OCC,THERMAL ZONE 18,24.54,1.3,1.3,5.382E-002,18.581,0.300,0.700,AutoCalculate,SMALL OFFICE_ACTIVITY,No,3.8200E-008
 People Internal Gains, THERMAL ZONE 19 ASHRAE_90.1-2004 CLIMATEZONE 1-8 SMALLOFFICE WHOLEBUILDING PEOPLE,SMALL OFFICE_BLDG_OCC,THERMAL ZONE 19,24.54,1.3,1.3,5.382E-002,18.581,0.300,0.700,AutoCalculate,SMALL OFFICE_ACTIVITY,No,3.8200E-008
 People Internal Gains, THERMAL ZONE 2 ASHRAE_90.1-2004 CLIMATEZONE 1-8 SMALLOFFICE WHOLEBUILDING PEOPLE,SMALL OFFICE_BLDG_OCC,THERMAL ZONE 2,24.54,1.3,1.3,5.382E-002,18.581,0.300,0.700,AutoCalculate,SMALL OFFICE_ACTIVITY,No,3.8200E-008
 People Internal Gains, THERMAL ZONE 20 ASHRAE_90.1-2004 CLIMATEZONE 1-8 SMALLOFFICE WHOLEBUILDING PEOPLE,SMALL OFFICE_BLDG_OCC,THERMAL ZONE 20,24.54,1.3,1.3,5.382E-002,18.581,0.300,0.700,AutoCalculate,SMALL OFFICE_ACTIVITY,No,3.8200E-008
 People Internal Gains, THERMAL ZONE 3 ASHRAE_90.1-2004 CLIMATEZONE 1-8 SMALLOFFICE WHOLEBUILDING PEOPLE,SMALL OFFICE_BLDG_OCC,THERMAL ZONE 3,24.54,1.3,1.3,5.382E-002,18.581,0.300,0.700,AutoCalculate,SMALL OFFICE_ACTIVITY,No,3.8200E-008
 People Internal Gains, THERMAL ZONE 4 ASHRAE_90.1-2004 CLIMATEZONE 1-8 SMALLOFFICE WHOLEBUILDING PEOPLE,SMALL OFFICE_BLDG_OCC,THERMAL ZONE 4,24.54,1.3,1.3,5.382E-002,18.581,0.300,0.700,AutoCalculate,SMALL OFFICE_ACTIVITY,No,3.8200E-008
 People Internal Gains, THERMAL ZONE 5 ASHRAE_90.1-2004 CLIMATEZONE 1-8 SMALLOFFICE WHOLEBUILDING PEOPLE,SMALL OFFICE_BLDG_OCC,THERMAL ZONE 5,26.84,1.4,1.4,5.382E-002,18.581,0.300,0.700,AutoCalculate,SMALL OFFICE_ACTIVITY,No,3.8200E-008
 People Internal Gains, THERMAL ZONE 6 ASHRAE_90.1-2004 CLIMATEZONE 1-8 SMALLOFFICE WHOLEBUILDING PEOPLE,SMALL OFFICE_BLDG_OCC,THERMAL ZONE 6,26.84,1.4,1.4,5.382E-002,18.581,0.300,0.700,AutoCalculate,SMALL OFFICE_ACTIVITY,No,3.8200E-008
 People Internal Gains, THERMAL ZONE 7 ASHRAE_90.1-2004 CLIMATEZONE 1-8 SMALLOFFICE WHOLEBUILDING PEOPLE,SMALL OFFICE_BLDG_OCC,THERMAL ZONE 7,24.54,1.3,1.3,5.382E-002,18.581,0.300,0.700,AutoCalculate,SMALL OFFICE_ACTIVITY,No,3.8200E-008
 People Internal Gains, THERMAL ZONE 8 ASHRAE_90.1-2004 CLIMATEZONE 1-8 SMALLOFFICE WHOLEBUILDING PEOPLE,SMALL OFFICE_BLDG_OCC,THERMAL ZONE 8,24.54,1.3,1.3,5.382E-002,18.581,0.300,0.700,AutoCalculate,SMALL OFFICE_ACTIVITY,No,3.8200E-008
 People Internal Gains, THERMAL ZONE 9 ASHRAE_90.1-2004 CLIMATEZONE 1-8 SMALLOFFICE WHOLEBUILDING PEOPLE,SMALL OFFICE_BLDG_OCC,THERMAL ZONE 9,24.54,1.3,1.3,5.382E-002,18.581,0.300,0.700,AutoCalculate,SMALL OFFICE_ACTIVITY,No,3.8200E-008
! <Lights Internal Gains - Nominal>,Name,Schedule Name,Zone Name,Zone Floor Area {m2},# Zone Occupants,Lighting Level {W},Lights/Floor Area {W/m2},Lights per person {W/person},Fraction Return Air,Fraction Radiant,Fraction Short Wave,Fraction Convected,Fraction Replaceable,EndUse Category
 Lights Internal Gains, THERMAL ZONE 1 ASHRAE_90.1-2004 CLIMATEZONE 1-8 SMALLOFFICE WHOLEBUILDING LIGHTS,SMALL OFFICE_BLDG_LIGHT,THERMAL ZONE 1,24.54,1.3,264.157,10.764,200.000,0.000,0.000,0.000,1.000,1.000,General
 Lights Internal Gains, THERMAL ZONE 10 ASHRAE_90.1-2004 CLIMATEZONE 1-8 SMALLOFFICE WHOLEBUILDING LIGHTS,SMALL OFFICE_BLDG_LIGHT,THERMAL ZONE 10,24.54,1.3,264.157,10.764,200.000,0.000,0.000,0.000,1.000,1.000,General
 Lights Internal Gains, THERMAL ZONE 11 ASHRAE_90.1-2004 CLIMATEZONE 1-8 SMALLOFFICE WHOLEBUILDING LIGHTS,SMALL OFFICE_BLDG_LIGHT,THERMAL ZONE 11,26.84,1.4,288.859,10.764,200.000,0.000,0.000,0.000,1.000,1.000,General
 Lights Internal Gains, THERMAL ZONE 12 ASHRAE_90.1-2004 CLIMATEZONE 1-8 SMALLOFFICE WHOLEBUILDING LIGHTS,SMALL OFFICE_BLDG_LIGHT,THERMAL ZONE 12,26.84,1.4,288.859,10.764,200.000,0.000,0.000,0.000,1.000,1.000,General
 Lights Internal Gains, THERMAL ZONE 13 ASHRAE_90.1-2004 CLIMATEZONE 1-8 SMALLOFFICE WHOLEBUILDING LIGHTS,SMALL OFFICE_BLDG_LIGHT,THERMAL ZONE 13,24.54,1.3,264.157,10.764,200.000,0.000,0.000,0.000,1.000,1.000,General
 Lights Internal Gains, THERMAL ZONE 14 ASHRAE_90.1-2004 CLIMATEZONE 1-8 SMALLOFFICE WHOLEBUILDING LIGHTS,SMALL OFFICE_BLDG_LIGHT,THERMAL ZONE 14,24.54,1.3,264.157,10.764,200.000,0.000,0.000,0.000,1.000,1.000,General
 Lights Internal Gains, THERMAL ZONE 15 ASHRAE_90.1-2004 CLIMATEZONE 1-8 SMALLOFFICE WHOLEBUILDING LIGHTS,SMALL OFFICE_BLDG_LIGHT,THERMAL ZONE 15,24.54,1.3,264.157,10.764,200.000,0.000,0.000,0.000,1.000,1.000,General
 Lights Internal Gains, THERMAL ZONE 16 ASHRAE_90.1-2004 CLIMATEZONE 1-8 SMALLOFFICE WHOLEBUILDING LIGHTS,SMALL OFFICE_BLDG_LIGHT,THERMAL ZONE 16,24.54,1.3,264.157,10.764,200.000,0.000,0.000,0.000,1.000,1.000,General
 Lights Internal Gains, THERMAL ZONE 17 ASHRAE_90.1-2004 CLIMATEZONE 1-8 SMALLOFFICE WHOLEBUILDING LIGHTS,SMALL OFFICE_BLDG_LIGHT,THERMAL ZONE 17,24.54,1.3,264.157,10.764,200.000,0.000,0.000,0.000,1.000,1.000,General
 Lights Internal Gains, THERMAL ZONE 18 ASHRAE_90.1-2004 CLIMATEZONE 1-8 SMALLOFFICE WHOLEBUILDING LIGHTS,SMALL OFFICE_BLDG_LIGHT,THERMAL ZONE 18,24.54,1.3,264.157,10.764,200.000,0.000,0.000,0.000,1.000,1.000,General
 Lights Internal Gains, THERMAL ZONE 19 ASHRAE_90.1-2004 CLIMATEZONE 1-8 SMALLOFFICE WHOLEBUILDING LIGHTS,SMALL OFFICE_BLDG_LIGHT,THERMAL ZONE 19,24.54,1.3,264.157,10.764,200.000,0.000,0.000,0.000,1.000,1.000,General
 Lights Internal Gains, THERMAL ZONE 2 ASHRAE_90.1-2004 CLIMATEZONE 1-8 SMALLOFFICE WHOLEBUILDING LIGHTS,SMALL OFFICE_BLDG_LIGHT,THERMAL ZONE 2,24.54,1.3,264.157,10.764,200.000,0.000,0.000,0.000,1.000,1.000,General
 Lights Internal Gains, THERMAL ZONE 20 ASHRAE_90.1-2004 CLIMATEZONE 1-8 SMALLOFFICE WHOLEBUILDING LIGHTS,SMALL OFFICE_BLDG_LIGHT,THERMAL ZONE 20,24.54,1.3,264.157,10.764,200.000,0.000,0.000,0.000,1.000,1.000,General
 Lights Internal Gains, THERMAL ZONE 3 ASHRAE_90.1-2004 CLIMATEZONE 1-8 SMALLOFFICE WHOLEBUILDING LIGHTS,SMALL OFFICE_BLDG_LIGHT,THERMAL ZONE 3,24.54,1.3,264.157,10.764,200.000,0.000,0.000,0.000,1.000,1.000,General
 Lights Internal Gains, THERMAL ZONE 4 ASHRAE_90.1-2004 CLIMATEZONE 1-8 SMALLOFFICE WHOLEBUILDING LIGHTS,SMALL OFFICE_BLDG_LIGHT,THERMAL ZONE 4,24.54,1.3,264.157,10.764,200.000,0.000,0.000,0.000,1.000,1.000,General
 Lights Internal Gains, THERMAL ZONE 5 ASHRAE_90.1-2004 CLIMATEZONE 1-8 SMALLOFFICE WHOLEBUILDING LIGHTS,SMALL OFFICE_BLDG_LIGHT,THERMAL ZONE 5,26.84,1.4,288.859,10.764,200.000,0.000,0.000,0.000,1.000,1.000,General
 Lights Internal Gains, THERMAL ZONE 6 ASHRAE_90.1-2004 CLIMATEZONE 1-8 SMALLOFFICE WHOLEBUILDING LIGHTS,SMALL OFFICE_BLDG_LIGHT,THERMAL ZONE 6,26.84,1.4,288.859,10.764,200.000,0.000,0.000,0.000,1.000,1.000,General
 Lights Internal Gains, THERMAL ZONE 7 ASHRAE_90.1-2004 CLIMATEZONE 1-8 SMALLOFFICE WHOLEBUILDING LIGHTS,SMALL OFFICE_BLDG_LIGHT,THERMAL ZONE 7,24.54,1.3,264.157,10.764,200.000,0.000,0.000,0.000,1.000,1.000,General
 Lights Internal Gains, THERMAL ZONE 8 ASHRAE_90.1-2004 CLIMATEZONE 1-8 SMALLOFFICE WHOLEBUILDING LIGHTS,SMALL OFFICE_BLDG_LIGHT,THERMAL ZONE 8,24.54,1.3,264.157,10.764,200.000,0.000,0.000,0.000,1.000,1.000,General
 Lights Internal Gains, THERMAL ZONE 9 ASHRAE_90.1-2004 CLIMATEZONE 1-8 SMALLOFFICE WHOLEBUILDING LIGHTS,SMALL OFFICE_BLDG_LIGHT,THERMAL ZONE 9,24.54,1.3,264.157,10.764,200.000,0.000,0.000,0.000,1.000,1.000,General
! <ElectricEquipment Internal Gains - Nominal>,Name,Schedule Name,Zone Name,Zone Floor Area {m2},# Zone Occupants,Equipment Level {W},Equipment/Floor Area {W/m2},Equipment per person {W/person},Fraction Latent,Fraction Radiant,Fraction Lost,Fraction Convected,EndUse SubCategory
 ElectricEquipment Internal Gains, THERMAL ZONE 1 ASHRAE_90.1-2004 CLIMATEZONE 1-8 SMALLOFFICE WHOLEBUILDING ELECTRIC EQUIPMENT,SMALL OFFICE_BLDG_EQUIP,THERMAL ZONE 1,24.54,1.3,264.157,10.764,200.000,0.000,0.000,0.000,1.000,General
 ElectricEquipment Internal Gains, THERMAL ZONE 10 ASHRAE_90.1-2004 CLIMATEZONE 1-8 SMALLOFFICE WHOLEBUILDING ELECTRIC EQUIPMENT,SMALL OFFICE_BLDG_EQUIP,THERMAL ZONE 10,24.54,1.3,264.157,10.764,200.000,0.000,0.000,0.000,1.000,General
 ElectricEquipment Internal Gains, THERMAL ZONE 11 ASHRAE_90.1-2004 CLIMATEZONE 1-8 SMALLOFFICE WHOLEBUILDING ELECTRIC EQUIPMENT,SMALL OFFICE_BLDG_EQUIP,THERMAL ZONE 11,26.84,1.4,288.859,10.764,200.000,0.000,0.000,0.000,1.000,General
 ElectricEquipment Internal Gains, THERMAL ZONE 12 ASHRAE_90.1-2004 CLIMATEZONE 1-8 SMALLOFFICE WHOLEBUILDING ELECTRIC EQUIPMENT,SMALL OFFICE_BLDG_EQUIP,THERMAL ZONE 12,26.84,1.4,288.859,10.764,200.000,0.000,0.000,0.000,1.000,General
 ElectricEquipment Internal Gains, THERMAL ZONE 13 ASHRAE_90.1-2004 CLIMATEZONE 1-8 SMALLOFFICE WHOLEBUILDING ELECTRIC EQUIPMENT,SMALL OFFICE_BLDG_EQUIP,THERMAL ZONE 13,24.54,1.3,264.157,10.764,200.000,0.000,0.000,0.000,1.000,General
 ElectricEquipment Internal Gains, THERMAL ZONE 14 ASHRAE_90.1-2004 CLIMATEZONE 1-8 SMALLOFFICE WHOLEBUILDING ELECTRIC EQUIPMENT,SMALL OFFICE_BLDG_EQUIP,THERMAL ZONE 14,24.54,1.3,264.157,10.764,200.000,0.000,0.000,0.000,1.000,General
 ElectricEquipment Internal Gains, THERMAL ZONE 15 ASHRAE_90.1-2004 CLIMATEZONE 1-8 SMALLOFFICE WHOLEBUILDING ELECTRIC EQUIPMENT,SMALL OFFICE_BLDG_EQUIP,THERMAL ZONE 15,24.54,1.3,264.157,10.764,200.000,0.000,0.000,0.000,1.000,General
 ElectricEquipment Internal Gains, THERMAL ZONE 16 ASHRAE_90.1-2004 CLIMATEZONE 1-8 SMALLOFFICE WHOLEBUILDING ELECTRIC EQUIPMENT,SMALL OFFICE_BLDG_EQUIP,THERMAL ZONE 16,24.54,1.3,264.157,10.764,200.000,0.000,0.000,0.000,1.000,General
 ElectricEquipment Internal Gains, THERMAL ZONE 17 ASHRAE_90.1-2004 CLIMATEZONE 1-8 SMALLOFFICE WHOLEBUILDING ELECTRIC EQUIPMENT,SMALL OFFICE_BLDG_EQUIP,THERMAL ZONE 17,24.54,1.3,264.157,10.764,200.000,0.000,0.000,0.000,1.000,General
 ElectricEquipment Internal Gains, THERMAL ZONE 18 ASHRAE_90.1-2004 CLIMATEZONE 1-8 SMALLOFFICE WHOLEBUILDING ELECTRIC EQUIPMENT,SMALL OFFICE_BLDG_EQUIP,THERMAL ZONE 18,24.54,1.3,264.157,10.764,200.000,0.000,0.000,0.000,1.000,General
 ElectricEquipment Internal Gains, THERMAL ZONE 19 ASHRAE_90.1-2004 CLIMATEZONE 1-8 SMALLOFFICE WHOLEBUILDING ELECTRIC EQUIPMENT,SMALL OFFICE_BLDG_EQUIP,THERMAL ZONE 19,24.54,1.3,264.157,10.764,200.000,0.000,0.000,0.000,1.000,General
 ElectricEquipment Internal Gains, THERMAL ZONE 2 ASHRAE_90.1-2004 CLIMATEZONE 1-8 SMALLOFFICE WHOLEBUILDING ELECTRIC EQUIPMENT,SMALL OFFICE_BLDG_EQUIP,THERMAL ZONE 2,24.54,1.3,264.157,10.764,200.000,0.000,0.000,0.000,1.000,General
 ElectricEquipment Internal Gains, THERMAL ZONE 20 ASHRAE_90.1-2004 CLIMATEZONE 1-8 SMALLOFFICE WHOLEBUILDING ELECTRIC EQUIPMENT,SMALL OFFICE_BLDG_EQUIP,THERMAL ZONE 20,24.54,1.3,264.157,10.764,200.000,0.000,0.000,0.000,1.000,General
 ElectricEquipment Internal Gains, THERMAL ZONE 3 ASHRAE_90.1-2004 CLIMATEZONE 1-8 SMALLOFFICE WHOLEBUILDING ELECTRIC EQUIPMENT,SMALL OFFICE_BLDG_EQUIP,THERMAL ZONE 3,24.54,1.3,264.157,10.764,200.000,0.000,0.000,0.000,1.000,General
 ElectricEquipment Internal Gains, THERMAL ZONE 4 ASHRAE_90.1-2004 CLIMATEZONE 1-8 SMALLOFFICE WHOLEBUILDING ELECTRIC EQUIPMENT,SMALL OFFICE_BLDG_EQUIP,THERMAL ZONE 4,24.54,1.3,264.157,10.764,200.000,0.000,0.000,0.000,1.000,General
 ElectricEquipment Internal Gains, THERMAL ZONE 5 ASHRAE_90.1-2004 CLIMATEZONE 1-8 SMALLOFFICE WHOLEBUILDING ELECTRIC EQUIPMENT,SMALL OFFICE_BLDG_EQUIP,THERMAL ZONE 5,26.84,1.4,288.859,10.764,200.000,0.000,0.000,0.000,1.000,General
 ElectricEquipment Internal Gains, THERMAL ZONE 6 ASHRAE_90.1-2004 CLIMATEZONE 1-8 SMALLOFFICE WHOLEBUILDING ELECTRIC EQUIPMENT,SMALL OFFICE_BLDG_EQUIP,THERMAL ZONE 6,26.84,1.4,288.859,10.764,200.000,0.000,0.000,0.000,1.000,General
 ElectricEquipment Internal Gains, THERMAL ZONE 7 ASHRAE_90.1-2004 CLIMATEZONE 1-8 SMALLOFFICE WHOLEBUILDING ELECTRIC EQUIPMENT,SMALL OFFICE_BLDG_EQUIP,THERMAL ZONE 7,24.54,1.3,264.157,10.764,200.000,0.000,0.000,0.000,1.000,General
 ElectricEquipment Internal Gains, THERMAL ZONE 8 ASHRAE_90.1-2004 CLIMATEZONE 1-8 SMALLOFFICE WHOLEBUILDING ELECTRIC EQUIPMENT,SMALL OFFICE_BLDG_EQUIP,THERMAL ZONE 8,24.54,1.3,264.157,10.764,200.000,0.000,0.000,0.000,1.000,General
 ElectricEquipment Internal Gains, THERMAL ZONE 9 ASHRAE_90.1-2004 CLIMATEZONE 1-8 SMALLOFFICE WHOLEBUILDING ELECTRIC EQUIPMENT,SMALL OFFICE_BLDG_EQUIP,THERMAL ZONE 9,24.54,1.3,264.157,10.764,200.000,0.000,0.000,0.000,1.000,General
! <Shadowing/Sun Position Calculations> [Annual Simulations], Value {days}, Allowable Number Figures in Shadow Overlap {}, Polygon Clipping Algorithm, Sky Diffuse Modeling Algorithm
Shadowing/Sun Position Calculations,20,15000,SutherlandHodgman,SimpleSkyDiffuseModeling
! <Infiltration Airflow Stats - Nominal>,Name,Schedule Name,Zone Name, Zone Floor Area {m2}, # Zone Occupants,Design Volume Flow Rate {m3/s},Volume Flow Rate/Floor Area {m3/s/m2},Volume Flow Rate/Exterior Surface Area {m3/s/m2},ACH - Air Changes per Hour,Equation A - Constant Term Coefficient {},Equation B - Temperature Term Coefficient {1/C},Equation C - Velocity Term Coefficient {s/m}, Equation D - Velocity Squared Term Coefficient {s2/m2}
 ZoneInfiltration Airflow Stats, THERMAL ZONE 1 ASHRAE_90.1-2004 CLIMATEZONE 1-8 SMALLOFFICE WHOLEBUILDING INFILTRATION,SMALL OFFICE_INFIL_QUARTER_ON,THERMAL ZONE 1,24.54,1.3,2.094E-002,8.531E-004,3.023E-004,0.768,1.000,0.000,0.000,0.000
 ZoneInfiltration Airflow Stats, THERMAL ZONE 10 ASHRAE_90.1-2004 CLIMATEZONE 1-8 SMALLOFFICE WHOLEBUILDING INFILTRATION,SMALL OFFICE_INFIL_QUARTER_ON,THERMAL ZONE 10,24.54,1.3,1.352E-002,5.508E-004,3.023E-004,0.496,1.000,0.000,0.000,0.000
 ZoneInfiltration Airflow Stats, THERMAL ZONE 11 ASHRAE_90.1-2004 CLIMATEZONE 1-8 SMALLOFFICE WHOLEBUILDING INFILTRATION,SMALL OFFICE_INFIL_QUARTER_ON,THERMAL ZONE 11,26.84,1.4,0.000,0.000,N/A,0.000,1.000,0.000,0.000,0.000
 ZoneInfiltration Airflow Stats, THERMAL ZONE 12 ASHRAE_90.1-2004 CLIMATEZONE 1-8 SMALLOFFICE WHOLEBUILDING INFILTRATION,SMALL OFFICE_INFIL_QUARTER_ON,THERMAL ZONE 12,26.84,1.4,0.000,0.000,N/A,0.000,1.000,0.000,0.000,0.000
 ZoneInfiltration Airflow Stats, THERMAL ZONE 13 ASHRAE_90.1-2004 CLIMATEZONE 1-8 SMALLOFFICE WHOLEBUILDING INFILTRATION,SMALL OFFICE_INFIL_QUARTER_ON,THERMAL ZONE 13,24.54,1.3,1.352E-002,5.508E-004,3.023E-004,0.496,1.000,0.000,0.000,0.000
 ZoneInfiltration Airflow Stats, THERMAL ZONE 14 ASHRAE_90.1-2004 CLIMATEZONE 1-8 SMALLOFFICE WHOLEBUILDING INFILTRATION,SMALL OFFICE_INFIL_QUARTER_ON,THERMAL ZONE 14,24.54,1.3,1.352E-002,5.508E-004,3.023E-004,0.496,1.000,0.000,0.000,0.000
 ZoneInfiltration Airflow Stats, THERMAL ZONE 15 ASHRAE_90.1-2004 CLIMATEZONE 1-8 SMALLOFFICE WHOLEBUILDING INFILTRATION,SMALL OFFICE_INFIL_QUARTER_ON,THERMAL ZONE 15,24.54,1.3,2.094E-002,8.531E-004,3.023E-004,0.768,1.000,0.000,0.000,0.000
 ZoneInfiltration Airflow Stats, THERMAL ZONE 16 ASHRAE_90.1-2004 CLIMATEZONE 1-8 SMALLOFFICE WHOLEBUILDING INFILTRATION,SMALL OFFICE_INFIL_QUARTER_ON,THERMAL ZONE 16,24.54,1.3,2.094E-002,8.531E-004,3.023E-004,0.768,1.000,0.000,0.000,0.000
 ZoneInfiltration Airflow Stats, THERMAL ZONE 17 ASHRAE_90.1-2004 CLIMATEZONE 1-8 SMALLOFFICE WHOLEBUILDING INFILTRATION,SMALL OFFICE_INFIL_QUARTER_ON,THERMAL ZONE 17,24.54,1.3,1.352E-002,5.508E-004,3.023E-004,0.496,1.000,0.000,0.000,0.000
 ZoneInfiltration Airflow Stats, THERMAL ZONE 18 ASHRAE_90.1-2004 CLIMATEZONE 1-8 SMALLOFFICE WHOLEBUILDING INFILTRATION,SMALL OFFICE_INFIL_QUARTER_ON,THERMAL ZONE 18,24.54,1.3,2.094E-002,8.531E-004,3.023E-004,0.768,1.000,0.000,0.000,0.000
 ZoneInfiltration Airflow Stats, THERMAL ZONE 19 ASHRAE_90.1-2004 CLIMATEZONE 1-8 SMALLOFFICE WHOLEBUILDING INFILTRATION,SMALL OFFICE_INFIL_QUARTER_ON,THERMAL ZONE 19,24.54,1.3,1.352E-002,5.508E-004,3.023E-004,0.496,1.000,0.000,0.000,0.000
 ZoneInfiltration Airflow Stats, THERMAL ZONE 2 ASHRAE_90.1-2004 CLIMATEZONE 1-8 SMALLOFFICE WHOLEBUILDING INFILTRATION,SMALL OFFICE_INFIL_QUARTER_ON,THERMAL ZONE 2,24.54,1.3,1.352E-002,5.508E-004,3.023E-004,0.496,1.000,0.000,0.000,0.000
 ZoneInfiltration Airflow Stats, THERMAL ZONE 20 ASHRAE_90.1-2004 CLIMATEZONE 1-8 SMALLOFFICE WHOLEBUILDING INFILTRATION,SMALL OFFICE_INFIL_QUARTER_ON,THERMAL ZONE 20,24.54,1.3,1.352E-002,5.508E-004,3.023E-004,0.496,1.000,0.000,0.000,0.000
 ZoneInfiltration Airflow Stats, THERMAL ZONE 3 ASHRAE_90.1-2004 CLIMATEZONE 1-8 SMALLOFFICE WHOLEBUILDING INFILTRATION,SMALL OFFICE_INFIL_QUARTER_ON,THERMAL ZONE 3,24.54,1.3,1.352E-002,5.508E-004,3.023E-004,0.496,1.000,0.000,0.000,0.000
 ZoneInfiltration Airflow Stats, THERMAL ZONE 4 ASHRAE_90.1-2004 CLIMATEZONE 1-8 SMALLOFFICE WHOLEBUILDING INFILTRATION,SMALL OFFICE_INFIL_QUARTER_ON,THERMAL ZONE 4,24.54,1.3,1.352E-002,5.508E-004,3.023E-004,0.496,1.000,0.000,0.000,0.000
 ZoneInfiltration Airflow Stats, THERMAL ZONE 5 ASHRAE_90.1-2004 CLIMATEZONE 1-8 SMALLOFFICE WHOLEBUILDING INFILTRATION,SMALL OFFICE_INFIL_QUARTER_ON,THERMAL ZONE 5,26.84,1.4,8.111E-003,3.023E-004,3.023E-004,0.272,1.000,0.000,0.000,0.000
 ZoneInfiltration Airflow Stats, THERMAL ZONE 6 ASHRAE_90.1-2004 CLIMATEZONE 1-8 SMALLOFFICE WHOLEBUILDING INFILTRATION,SMALL OFFICE_INFIL_QUARTER_ON,THERMAL ZONE 6,26.84,1.4,0.000,0.000,N/A,0.000,1.000,0.000,0.000,0.000
 ZoneInfiltration Airflow Stats, THERMAL ZONE 7 ASHRAE_90.1-2004 CLIMATEZONE 1-8 SMALLOFFICE WHOLEBUILDING INFILTRATION,SMALL OFFICE_INFIL_QUARTER_ON,THERMAL ZONE 7,24.54,1.3,1.352E-002,5.508E-004,3.023E-004,0.496,1.000,0.000,0.000,0.000
 ZoneInfiltration Airflow Stats, THERMAL ZONE 8 ASHRAE_90.1-2004 CLIMATEZONE 1-8 SMALLOFFICE WHOLEBUILDING INFILTRATION,SMALL OFFICE_INFIL_QUARTER_ON,THERMAL ZONE 8,24.54,1.3,1.352E-002,5.508E-004,3.023E-004,0.496,1.000,0.000,0.000,0.000
 ZoneInfiltration Airflow Stats, THERMAL ZONE 9 ASHRAE_90.1-2004 CLIMATEZONE 1-8 SMALLOFFICE WHOLEBUILDING INFILTRATION,SMALL OFFICE_INFIL_QUARTER_ON,THERMAL ZONE 9,24.54,1.3,1.352E-002,5.508E-004,3.023E-004,0.496,1.000,0.000,0.000,0.000
! <AirFlow Model>, Simple
 AirFlow Model, Simple
! <RoomAir Model>, Zone Name, Mixing/Mundt/UCSDDV/UCSDCV/UCSDUFI/UCSDUFE/User Defined
RoomAir Model,THERMAL ZONE 11,Mixing/Well-Stirred
RoomAir Model,THERMAL ZONE 1,Mixing/Well-Stirred
RoomAir Model,THERMAL ZONE 15,Mixing/Well-Stirred
RoomAir Model,THERMAL ZONE 3,Mixing/Well-Stirred
RoomAir Model,THERMAL ZONE 9,Mixing/Well-Stirred
RoomAir Model,THERMAL ZONE 14,Mixing/Well-Stirred
RoomAir Model,THERMAL ZONE 8,Mixing/Well-Stirred
RoomAir Model,THERMAL ZONE 16,Mixing/Well-Stirred
RoomAir Model,THERMAL ZONE 13,Mixing/Well-Stirred
RoomAir Model,THERMAL ZONE 17,Mixing/Well-Stirred
RoomAir Model,THERMAL ZONE 2,Mixing/Well-Stirred
RoomAir Model,THERMAL ZONE 20,Mixing/Well-Stirred
RoomAir Model,THERMAL ZONE 19,Mixing/Well-Stirred
RoomAir Model,THERMAL ZONE 12,Mixing/Well-Stirred
RoomAir Model,THERMAL ZONE 6,Mixing/Well-Stirred
RoomAir Model,THERMAL ZONE 7,Mixing/Well-Stirred
RoomAir Model,THERMAL ZONE 10,Mixing/Well-Stirred
RoomAir Model,THERMAL ZONE 18,Mixing/Well-Stirred
RoomAir Model,THERMAL ZONE 5,Mixing/Well-Stirred
RoomAir Model,THERMAL ZONE 4,Mixing/Well-Stirred
! <AirflowNetwork Model:Control>, No Multizone or Distribution/Multizone with Distribution/Multizone without Distribution/Multizone with Distribution only during Fan Operation
AirflowNetwork Model:Control,NoMultizoneOrDistribution
! <Zone Volume Capacitance Multiplier>, Sensible Heat Capacity Multiplier, Moisture Capacity Multiplier, Carbon Dioxide Capacity Multiplier, Generic Contaminant Capacity Multiplier
Zone Volume Capacitance Multiplier,   1.000 ,   1.000,   1.000,   1.000
! <Load Timesteps in Zone Design Calculation Averaging Window>, Value
 Load Timesteps in Zone Design Calculation Averaging Window,    4
! <Heating Sizing Factor Information>, Sizing Factor ID, Value
 Heating Sizing Factor Information, Global,   1.2500    
 Heating Sizing Factor Information, Zone THERMAL ZONE 11,   1.2500    
 Heating Sizing Factor Information, Zone THERMAL ZONE 1,   1.2500    
 Heating Sizing Factor Information, Zone THERMAL ZONE 15,   1.2500    
 Heating Sizing Factor Information, Zone THERMAL ZONE 3,   1.2500    
 Heating Sizing Factor Information, Zone THERMAL ZONE 9,   1.2500    
 Heating Sizing Factor Information, Zone THERMAL ZONE 14,   1.2500    
 Heating Sizing Factor Information, Zone THERMAL ZONE 8,   1.2500    
 Heating Sizing Factor Information, Zone THERMAL ZONE 16,   1.2500    
 Heating Sizing Factor Information, Zone THERMAL ZONE 13,   1.2500    
 Heating Sizing Factor Information, Zone THERMAL ZONE 17,   1.2500    
 Heating Sizing Factor Information, Zone THERMAL ZONE 2,   1.2500    
 Heating Sizing Factor Information, Zone THERMAL ZONE 20,   1.2500    
 Heating Sizing Factor Information, Zone THERMAL ZONE 19,   1.2500    
 Heating Sizing Factor Information, Zone THERMAL ZONE 12,   1.2500    
 Heating Sizing Factor Information, Zone THERMAL ZONE 6,   1.2500    
 Heating Sizing Factor Information, Zone THERMAL ZONE 7,   1.2500    
 Heating Sizing Factor Information, Zone THERMAL ZONE 10,   1.2500    
 Heating Sizing Factor Information, Zone THERMAL ZONE 18,   1.2500    
 Heating Sizing Factor Information, Zone THERMAL ZONE 5,   1.2500    
 Heating Sizing Factor Information, Zone THERMAL ZONE 4,   1.2500    
! <Cooling Sizing Factor Information>, Sizing Factor ID, Value
 Cooling Sizing Factor Information, Global,   1.1500    
 Cooling Sizing Factor Information, Zone THERMAL ZONE 11,   1.1500    
 Cooling Sizing Factor Information, Zone THERMAL ZONE 1,   1.1500    
 Cooling Sizing Factor Information, Zone THERMAL ZONE 15,   1.1500    
 Cooling Sizing Factor Information, Zone THERMAL ZONE 3,   1.1500    
 Cooling Sizing Factor Information, Zone THERMAL ZONE 9,   1.1500    
 Cooling Sizing Factor Information, Zone THERMAL ZONE 14,   1.1500    
 Cooling Sizing Factor Information, Zone THERMAL ZONE 8,   1.1500    
 Cooling Sizing Factor Information, Zone THERMAL ZONE 16,   1.1500    
 Cooling Sizing Factor Information, Zone THERMAL ZONE 13,   1.1500    
 Cooling Sizing Factor Information, Zone THERMAL ZONE 17,   1.1500    
 Cooling Sizing Factor Information, Zone THERMAL ZONE 2,   1.1500    
 Cooling Sizing Factor Information, Zone THERMAL ZONE 20,   1.1500    
 Cooling Sizing Factor Information, Zone THERMAL ZONE 19,   1.1500    
 Cooling Sizing Factor Information, Zone THERMAL ZONE 12,   1.1500    
 Cooling Sizing Factor Information, Zone THERMAL ZONE 6,   1.1500    
 Cooling Sizing Factor Information, Zone THERMAL ZONE 7,   1.1500    
 Cooling Sizing Factor Information, Zone THERMAL ZONE 10,   1.1500    
 Cooling Sizing Factor Information, Zone THERMAL ZONE 18,   1.1500    
 Cooling Sizing Factor Information, Zone THERMAL ZONE 5,   1.1500    
 Cooling Sizing Factor Information, Zone THERMAL ZONE 4,   1.1500    
! <Zone Sizing Information>, Zone Name, Load Type, Calc Des Load {W}, User Des Load {W}, Calc Des Air Flow Rate {m3/s}, User Des Air Flow Rate {m3/s}, Design Day Name, Date/Time of Peak, Temperature at Peak {C}, Humidity Ratio at Peak {kgWater/kgDryAir}, Floor Area {m2}, # Occupants, Calc Outdoor Air Flow Rate {m3/s}
 Zone Sizing Information, THERMAL ZONE 11, Cooling, 817.27417, 939.86529, 4.86495E-002, 5.59469E-002, CHICAGO OHARE INTL AP ANN CLG .4% CONDNS DB=>MWB, 7/21 17:45:00, 31.04250, 1.49611E-002, 26.83592, 1.44430, 1.36326E-002
 Zone Sizing Information, THERMAL ZONE 11, Heating, 255.39263, 319.24079, 1.33121E-002, 1.66401E-002, CHICAGO OHARE INTL AP ANN HTG 99.6% CONDNS DB, 1/21 07:00:00, -20.00000, 6.49857E-004, 26.83592, 1.44430, 1.36326E-002
 Zone Sizing Information, THERMAL ZONE 1, Cooling, 1051.16706, 1208.84212, 6.25788E-002, 7.19656E-002, CHICAGO OHARE INTL AP ANN CLG .4% CONDNS DB=>MWB, 7/21 18:30:00, 29.99250, 1.49611E-002, 24.54102, 1.32079, 1.24668E-002
 Zone Sizing Information, THERMAL ZONE 1, Heating, 2622.95463, 3278.69329, 0.13664, 0.17080, CHICAGO OHARE INTL AP ANN HTG 99.6% CONDNS DB, 1/21 06:00:00, -20.00000, 6.49857E-004, 24.54102, 1.32079, 1.24668E-002
 Zone Sizing Information, THERMAL ZONE 15, Cooling, 1532.83682, 1762.76234, 9.12521E-002, 0.10494, CHICAGO OHARE INTL AP ANN CLG .4% CONDNS DB=>MWB, 7/21 11:00:00, 30.88500, 1.49611E-002, 24.54102, 1.32079, 1.24668E-002
 Zone Sizing Information, THERMAL ZONE 15, Heating, 2608.46397, 3260.57996, 0.13588, 0.16985, CHICAGO OHARE INTL AP ANN HTG 99.6% CONDNS DB, 1/21 06:00:00, -20.00000, 6.49857E-004, 24.54102, 1.32079, 1.24668E-002
 Zone Sizing Information, THERMAL ZONE 3, Cooling, 557.24864, 640.83593, 3.31756E-002, 3.81519E-002, CHICAGO OHARE INTL AP ANN CLG .4% CONDNS DB=>MWB, 7/21 18:15:00, 30.38625, 1.49611E-002, 24.54102, 1.32079, 1.24668E-002
 Zone Sizing Information, THERMAL ZONE 3, Heating, 2081.09937, 2601.37421, 0.10843, 0.13554, CHICAGO OHARE INTL AP ANN HTG 99.6% CONDNS DB, 1/21 06:00:00, -20.00000, 6.49857E-004, 24.54102, 1.32079, 1.24668E-002
 Zone Sizing Information, THERMAL ZONE 9, Cooling, 1727.06753, 1986.12766, 0.10281, 0.11823, CHICAGO OHARE INTL AP ANN CLG .4% CONDNS DB=>MWB, 7/21 17:30:00, 31.30500, 1.49611E-002, 24.54102, 1.32079, 1.24668E-002
 Zone Sizing Information, THERMAL ZONE 9, Heating, 1958.13747, 2447.67184, 0.10202, 0.12753, CHICAGO OHARE INTL AP ANN HTG 99.6% CONDNS DB, 1/21 06:00:00, -20.00000, 6.49857E-004, 24.54102, 1.32079, 1.24668E-002
 Zone Sizing Information, THERMAL ZONE 14, Cooling, 1451.47518, 1669.19646, 8.64049E-002, 9.93657E-002, CHICAGO OHARE INTL AP ANN CLG .4% CONDNS DB=>MWB, 7/21 14:45:00, 33.30000, 1.49611E-002, 24.54102, 1.32079, 1.24668E-002
 Zone Sizing Information, THERMAL ZONE 14, Heating, 1957.77220, 2447.21526, 0.10201, 0.12751, CHICAGO OHARE INTL AP ANN HTG 99.6% CONDNS DB, 1/21 06:00:00, -20.00000, 6.49857E-004, 24.54102, 1.32079, 1.24668E-002
 Zone Sizing Information, THERMAL ZONE 8, Cooling, 1763.19514, 2027.67441, 0.10496, 0.12070, CHICAGO OHARE INTL AP ANN CLG .4% CONDNS DB=>MWB, 7/21 17:30:00, 31.30500, 1.49611E-002, 24.54102, 1.32079, 1.24668E-002
 Zone Sizing Information, THERMAL ZONE 8, Heating, 1968.63038, 2460.78798, 0.10257, 0.12821, CHICAGO OHARE INTL AP ANN HTG 99.6% CONDNS DB, 1/21 06:00:00, -20.00000, 6.49857E-004, 24.54102, 1.32079, 1.24668E-002
 Zone Sizing Information, THERMAL ZONE 16, Cooling, 1488.96890, 1712.31423, 8.86405E-002, 0.10194, CHICAGO OHARE INTL AP ANN CLG .4% CONDNS DB=>MWB, 7/21 14:45:00, 33.30000, 1.49611E-002, 24.54102, 1.32079, 1.24668E-002
 Zone Sizing Information, THERMAL ZONE 16, Heating, 2622.95463, 3278.69329, 0.13664, 0.17080, CHICAGO OHARE INTL AP ANN HTG 99.6% CONDNS DB, 1/21 06:00:00, -20.00000, 6.49857E-004, 24.54102, 1.32079, 1.24668E-002
 Zone Sizing Information, THERMAL ZONE 13, Cooling, 1488.88237, 1712.21473, 8.86318E-002, 0.10193, CHICAGO OHARE INTL AP ANN CLG .4% CONDNS DB=>MWB, 7/21 14:30:00, 33.30000, 1.49611E-002, 24.54102, 1.32079, 1.24668E-002
 Zone Sizing Information, THERMAL ZONE 13, Heating, 1968.19783, 2460.24729, 0.10255, 0.12819, CHICAGO OHARE INTL AP ANN HTG 99.6% CONDNS DB, 1/21 06:00:00, -20.00000, 6.49857E-004, 24.54102, 1.32079, 1.24668E-002
 Zone Sizing Information, THERMAL ZONE 17, Cooling, 1516.70843, 1744.21469, 9.02883E-002, 0.10383, CHICAGO OHARE INTL AP ANN CLG .4% CONDNS DB=>MWB, 7/21 11:00:00, 30.88500, 1.49611E-002, 24.54102, 1.32079, 1.24668E-002
 Zone Sizing Information, THERMAL ZONE 17, Heating, 1946.34642, 2432.93303, 0.10141, 0.12676, CHICAGO OHARE INTL AP ANN HTG 99.6% CONDNS DB, 1/21 06:00:00, -20.00000, 6.49857E-004, 24.54102, 1.32079, 1.24668E-002
 Zone Sizing Information, THERMAL ZONE 2, Cooling, 1556.71456, 1790.22174, 9.26697E-002, 0.10657, CHICAGO OHARE INTL AP ANN CLG .4% CONDNS DB=>MWB, 7/21 11:00:00, 30.88500, 1.49611E-002, 24.54102, 1.32079, 1.24668E-002
 Zone Sizing Information, THERMAL ZONE 2, Heating, 1954.74444, 2443.43055, 0.10185, 0.12731, CHICAGO OHARE INTL AP ANN HTG 99.6% CONDNS DB, 1/21 06:00:00, -20.00000, 6.49857E-004, 24.54102, 1.32079, 1.24668E-002
 Zone Sizing Information, THERMAL ZONE 20, Cooling, 1190.60159, 1369.19183, 7.08767E-002, 8.15082E-002, CHICAGO OHARE INTL AP ANN CLG .4% CONDNS DB=>MWB, 7/21 17:00:00, 31.83000, 1.49611E-002, 24.54102, 1.32079, 1.24668E-002
 Zone Sizing Information, THERMAL ZONE 20, Heating, 2081.28691, 2601.60863, 0.10844, 0.13555, CHICAGO OHARE INTL AP ANN HTG 99.6% CONDNS DB, 1/21 06:00:00, -20.00000, 6.49857E-004, 24.54102, 1.32079, 1.24668E-002
 Zone Sizing Information, THERMAL ZONE 19, Cooling, 970.37695, 1115.93349, 5.77674E-002, 6.64325E-002, CHICAGO OHARE INTL AP ANN CLG .4% CONDNS DB=>MWB, 7/21 10:30:00, 30.09750, 1.49611E-002, 24.54102, 1.32079, 1.24668E-002
 Zone Sizing Information, THERMAL ZONE 19, Heating, 2074.83067, 2593.53834, 0.10810, 0.13513, CHICAGO OHARE INTL AP ANN HTG 99.6% CONDNS DB, 1/21 06:00:00, -20.00000, 6.49857E-004, 24.54102, 1.32079, 1.24668E-002
 Zone Sizing Information, THERMAL ZONE 12, Cooling, 776.31920, 892.76709, 4.62119E-002, 5.31436E-002, CHICAGO OHARE INTL AP ANN CLG .4% CONDNS DB=>MWB, 7/21 17:45:00, 31.04250, 1.49611E-002, 26.83592, 1.44430, 1.36326E-002
 Zone Sizing Information, THERMAL ZONE 12, Heating, 253.22871, 316.53589, 1.31993E-002, 1.64991E-002, CHICAGO OHARE INTL AP ANN HTG 99.6% CONDNS DB, 1/21 07:00:00, -20.00000, 6.49857E-004, 26.83592, 1.44430, 1.36326E-002
 Zone Sizing Information, THERMAL ZONE 6, Cooling, 403.41592, 463.92831, 2.40142E-002, 2.76163E-002, CHICAGO OHARE INTL AP ANN CLG .4% CONDNS DB=>MWB, 7/21 16:45:00, 32.04000, 1.49611E-002, 26.83592, 1.44430, 1.36326E-002
 Zone Sizing Information, THERMAL ZONE 6, Heating, 441.45332, 551.81665, 2.30103E-002, 2.87629E-002, CHICAGO OHARE INTL AP ANN HTG 99.6% CONDNS DB, 1/21 06:45:00, -20.00000, 6.49857E-004, 26.83592, 1.44430, 1.36326E-002
 Zone Sizing Information, THERMAL ZONE 7, Cooling, 969.87882, 1115.36064, 5.77372E-002, 6.63978E-002, CHICAGO OHARE INTL AP ANN CLG .4% CONDNS DB=>MWB, 7/21 18:30:00, 29.99250, 1.49611E-002, 24.54102, 1.32079, 1.24668E-002
 Zone Sizing Information, THERMAL ZONE 7, Heating, 1957.77220, 2447.21526, 0.10201, 0.12751, CHICAGO OHARE INTL AP ANN HTG 99.6% CONDNS DB, 1/21 06:00:00, -20.00000, 6.49857E-004, 24.54102, 1.32079, 1.24668E-002
 Zone Sizing Information, THERMAL ZONE 10, Cooling, 921.33050, 1059.53007, 5.48477E-002, 6.30749E-002, CHICAGO OHARE INTL AP ANN CLG .4% CONDNS DB=>MWB, 7/21 14:15:00, 33.30000, 1.49611E-002, 24.54102, 1.32079, 1.24668E-002
 Zone Sizing Information, THERMAL ZONE 10, Heating, 2081.09937, 2601.37421, 0.10843, 0.13554, CHICAGO OHARE INTL AP ANN HTG 99.6% CONDNS DB, 1/21 06:00:00, -20.00000, 6.49857E-004, 24.54102, 1.32079, 1.24668E-002
 Zone Sizing Information, THERMAL ZONE 18, Cooling, 1782.72017, 2050.12820, 0.10613, 0.12205, CHICAGO OHARE INTL AP ANN CLG .4% CONDNS DB=>MWB, 7/21 17:30:00, 31.30500, 1.49611E-002, 24.54102, 1.32079, 1.24668E-002
 Zone Sizing Information, THERMAL ZONE 18, Heating, 2623.40389, 3279.25486, 0.13666, 0.17083, CHICAGO OHARE INTL AP ANN HTG 99.6% CONDNS DB, 1/21 06:00:00, -20.00000, 6.49857E-004, 24.54102, 1.32079, 1.24668E-002
 Zone Sizing Information, THERMAL ZONE 5, Cooling, 857.37815, 985.98488, 5.10393E-002, 5.86952E-002, CHICAGO OHARE INTL AP ANN CLG .4% CONDNS DB=>MWB, 7/21 18:15:00, 30.38625, 1.49611E-002, 26.83592, 1.44430, 1.36326E-002
 Zone Sizing Information, THERMAL ZONE 5, Heating, 950.67541, 1188.34427, 4.95400E-002, 6.19250E-002, CHICAGO OHARE INTL AP ANN HTG 99.6% CONDNS DB, 1/21 06:00:00, -20.00000, 6.49857E-004, 26.83592, 1.44430, 1.36326E-002
 Zone Sizing Information, THERMAL ZONE 4, Cooling, 1010.29786, 1161.84254, 6.01432E-002, 6.91647E-002, CHICAGO OHARE INTL AP ANN CLG .4% CONDNS DB=>MWB, 7/21 18:30:00, 29.99250, 1.49611E-002, 24.54102, 1.32079, 1.24668E-002
 Zone Sizing Information, THERMAL ZONE 4, Heating, 1968.19783, 2460.24729, 0.10255, 0.12819, CHICAGO OHARE INTL AP ANN HTG 99.6% CONDNS DB, 1/21 06:00:00, -20.00000, 6.49857E-004, 24.54102, 1.32079, 1.24668E-002
! <System Sizing Information>, System Name, Field Description, Value
 System Sizing Information, AIR LOOP HVAC 1, Calculated Cooling Design Air Flow Rate [m3/s], 1.63165
 System Sizing Information, AIR LOOP HVAC 1, User Cooling Design Air Flow Rate [m3/s], 1.63165
 System Sizing Information, AIR LOOP HVAC 1, Calculated Heating Design Air Flow Rate [m3/s], 2.36906
 System Sizing Information, AIR LOOP HVAC 1, User Heating Design Air Flow Rate [m3/s], 2.36906
! <Component Sizing Information>, Component Type, Component Name, Input Field Description, Value
 Component Sizing Information, AirTerminal:SingleDuct:VAV:Reheat, AIR TERMINAL SINGLE DUCT VAV REHEAT 19, Maximum Air Flow Rate [m3/s], 5.59469E-002
 Component Sizing Information, AirTerminal:SingleDuct:VAV:Reheat, AIR TERMINAL SINGLE DUCT VAV REHEAT 19, Maximum Flow per Zone Floor Area during Reheat [m3/s-m2], 2.03200E-003
 Component Sizing Information, AirTerminal:SingleDuct:VAV:Reheat, AIR TERMINAL SINGLE DUCT VAV REHEAT 19, Maximum Flow Fraction during Reheat [], 0.97468
 Component Sizing Information, AirTerminal:SingleDuct:VAV:Reheat, AIR TERMINAL SINGLE DUCT VAV REHEAT 19, Maximum Reheat Water Flow Rate [m3/s], 1.20942E-005
 Component Sizing Information, AirTerminal:SingleDuct:VAV:Reheat, AIR TERMINAL SINGLE DUCT VAV REHEAT 19, Reheat Coil Sizing Air Volume Flow Rate [m3/s], 1.67841E-002
 Component Sizing Information, Coil:Heating:Water, COIL HEATING WATER 20, Maximum Water Flow Rate [m3/s], 1.20942E-005
 Component Sizing Information, Coil:Heating:Water, COIL HEATING WATER 20, Design Coil Load [W], 556.70146
 Component Sizing Information, Coil:Heating:Water, COIL HEATING WATER 20, U-Factor Times Area Value [W/K], 38.86422
! <Water Heating Coil Capacity Information>,Component Type,Name,Nominal Total Capacity {W}
Water Heating Coil Capacity Information,Coil:Heating:Water,COIL HEATING WATER 20,996.81
 Component Sizing Information, AirTerminal:SingleDuct:VAV:Reheat, AIR TERMINAL SINGLE DUCT VAV REHEAT 5, Maximum Air Flow Rate [m3/s], 0.17080
 Component Sizing Information, AirTerminal:SingleDuct:VAV:Reheat, AIR TERMINAL SINGLE DUCT VAV REHEAT 5, Maximum Flow per Zone Floor Area during Reheat [m3/s-m2], 2.08790E-003
 Component Sizing Information, AirTerminal:SingleDuct:VAV:Reheat, AIR TERMINAL SINGLE DUCT VAV REHEAT 5, Maximum Flow Fraction during Reheat [], 0.30000
 Component Sizing Information, AirTerminal:SingleDuct:VAV:Reheat, AIR TERMINAL SINGLE DUCT VAV REHEAT 5, Maximum Reheat Water Flow Rate [m3/s], 1.23073E-004
 Component Sizing Information, AirTerminal:SingleDuct:VAV:Reheat, AIR TERMINAL SINGLE DUCT VAV REHEAT 5, Reheat Coil Sizing Air Volume Flow Rate [m3/s], 0.17080
 Component Sizing Information, Coil:Heating:Water, COIL HEATING WATER 6, Maximum Water Flow Rate [m3/s], 1.23073E-004
 Component Sizing Information, Coil:Heating:Water, COIL HEATING WATER 6, Design Coil Load [W], 5665.07356
 Component Sizing Information, Coil:Heating:Water, COIL HEATING WATER 6, U-Factor Times Area Value [W/K], 118.64635
Water Heating Coil Capacity Information,Coil:Heating:Water,COIL HEATING WATER 6,5366.64
 Component Sizing Information, AirTerminal:SingleDuct:VAV:Reheat, AIR TERMINAL SINGLE DUCT VAV REHEAT 17, Maximum Air Flow Rate [m3/s], 0.16985
 Component Sizing Information, AirTerminal:SingleDuct:VAV:Reheat, AIR TERMINAL SINGLE DUCT VAV REHEAT 17, Maximum Flow per Zone Floor Area during Reheat [m3/s-m2], 2.07636E-003
 Component Sizing Information, AirTerminal:SingleDuct:VAV:Reheat, AIR TERMINAL SINGLE DUCT VAV REHEAT 17, Maximum Flow Fraction during Reheat [], 0.30000
 Component Sizing Information, AirTerminal:SingleDuct:VAV:Reheat, AIR TERMINAL SINGLE DUCT VAV REHEAT 17, Maximum Reheat Water Flow Rate [m3/s], 1.22393E-004
 Component Sizing Information, AirTerminal:SingleDuct:VAV:Reheat, AIR TERMINAL SINGLE DUCT VAV REHEAT 17, Reheat Coil Sizing Air Volume Flow Rate [m3/s], 0.16985
 Component Sizing Information, Coil:Heating:Water, COIL HEATING WATER 18, Maximum Water Flow Rate [m3/s], 1.22393E-004
 Component Sizing Information, Coil:Heating:Water, COIL HEATING WATER 18, Design Coil Load [W], 5633.77628
 Component Sizing Information, Coil:Heating:Water, COIL HEATING WATER 18, U-Factor Times Area Value [W/K], 117.99088
Water Heating Coil Capacity Information,Coil:Heating:Water,COIL HEATING WATER 18,5336.99
 Component Sizing Information, AirTerminal:SingleDuct:VAV:Reheat, AIR TERMINAL SINGLE DUCT VAV REHEAT 8, Maximum Air Flow Rate [m3/s], 0.13554
 Component Sizing Information, AirTerminal:SingleDuct:VAV:Reheat, AIR TERMINAL SINGLE DUCT VAV REHEAT 8, Maximum Flow per Zone Floor Area during Reheat [m3/s-m2], 2.03200E-003
 Component Sizing Information, AirTerminal:SingleDuct:VAV:Reheat, AIR TERMINAL SINGLE DUCT VAV REHEAT 8, Maximum Flow Fraction during Reheat [], 0.36792
 Component Sizing Information, AirTerminal:SingleDuct:VAV:Reheat, AIR TERMINAL SINGLE DUCT VAV REHEAT 8, Maximum Reheat Water Flow Rate [m3/s], 9.76665E-005
 Component Sizing Information, AirTerminal:SingleDuct:VAV:Reheat, AIR TERMINAL SINGLE DUCT VAV REHEAT 8, Reheat Coil Sizing Air Volume Flow Rate [m3/s], 0.13554
 Component Sizing Information, Coil:Heating:Water, COIL HEATING WATER 9, Maximum Water Flow Rate [m3/s], 9.76665E-005
 Component Sizing Information, Coil:Heating:Water, COIL HEATING WATER 9, Design Coil Load [W], 4495.61684
 Component Sizing Information, Coil:Heating:Water, COIL HEATING WATER 9, U-Factor Times Area Value [W/K], 94.15386
Water Heating Coil Capacity Information,Coil:Heating:Water,COIL HEATING WATER 9,4258.79
 Component Sizing Information, AirTerminal:SingleDuct:VAV:Reheat, AIR TERMINAL SINGLE DUCT VAV REHEAT 4, Maximum Air Flow Rate [m3/s], 0.12753
 Component Sizing Information, AirTerminal:SingleDuct:VAV:Reheat, AIR TERMINAL SINGLE DUCT VAV REHEAT 4, Maximum Flow per Zone Floor Area during Reheat [m3/s-m2], 2.03200E-003
 Component Sizing Information, AirTerminal:SingleDuct:VAV:Reheat, AIR TERMINAL SINGLE DUCT VAV REHEAT 4, Maximum Flow Fraction during Reheat [], 0.39102
 Component Sizing Information, AirTerminal:SingleDuct:VAV:Reheat, AIR TERMINAL SINGLE DUCT VAV REHEAT 4, Maximum Reheat Water Flow Rate [m3/s], 9.18955E-005
 Component Sizing Information, AirTerminal:SingleDuct:VAV:Reheat, AIR TERMINAL SINGLE DUCT VAV REHEAT 4, Reheat Coil Sizing Air Volume Flow Rate [m3/s], 0.12753
 Component Sizing Information, Coil:Heating:Water, COIL HEATING WATER 5, Maximum Water Flow Rate [m3/s], 9.18955E-005
 Component Sizing Information, Coil:Heating:Water, COIL HEATING WATER 5, Design Coil Load [W], 4229.97660
 Component Sizing Information, Coil:Heating:Water, COIL HEATING WATER 5, U-Factor Times Area Value [W/K], 88.59043
Water Heating Coil Capacity Information,Coil:Heating:Water,COIL HEATING WATER 5,4007.14
 Component Sizing Information, AirTerminal:SingleDuct:VAV:Reheat, AIR TERMINAL SINGLE DUCT VAV REHEAT 2, Maximum Air Flow Rate [m3/s], 0.12751
 Component Sizing Information, AirTerminal:SingleDuct:VAV:Reheat, AIR TERMINAL SINGLE DUCT VAV REHEAT 2, Maximum Flow per Zone Floor Area during Reheat [m3/s-m2], 2.03200E-003
 Component Sizing Information, AirTerminal:SingleDuct:VAV:Reheat, AIR TERMINAL SINGLE DUCT VAV REHEAT 2, Maximum Flow Fraction during Reheat [], 0.39110
 Component Sizing Information, AirTerminal:SingleDuct:VAV:Reheat, AIR TERMINAL SINGLE DUCT VAV REHEAT 2, Maximum Reheat Water Flow Rate [m3/s], 9.18783E-005
 Component Sizing Information, AirTerminal:SingleDuct:VAV:Reheat, AIR TERMINAL SINGLE DUCT VAV REHEAT 2, Reheat Coil Sizing Air Volume Flow Rate [m3/s], 0.12751
 Component Sizing Information, Coil:Heating:Water, COIL HEATING WATER 3, Maximum Water Flow Rate [m3/s], 9.18783E-005
 Component Sizing Information, Coil:Heating:Water, COIL HEATING WATER 3, Design Coil Load [W], 4229.18749
 Component Sizing Information, Coil:Heating:Water, COIL HEATING WATER 3, U-Factor Times Area Value [W/K], 88.57390
Water Heating Coil Capacity Information,Coil:Heating:Water,COIL HEATING WATER 3,4006.40
 Component Sizing Information, AirTerminal:SingleDuct:VAV:Reheat, AIR TERMINAL SINGLE DUCT VAV REHEAT 10, Maximum Air Flow Rate [m3/s], 0.12821
 Component Sizing Information, AirTerminal:SingleDuct:VAV:Reheat, AIR TERMINAL SINGLE DUCT VAV REHEAT 10, Maximum Flow per Zone Floor Area during Reheat [m3/s-m2], 2.03200E-003
 Component Sizing Information, AirTerminal:SingleDuct:VAV:Reheat, AIR TERMINAL SINGLE DUCT VAV REHEAT 10, Maximum Flow Fraction during Reheat [], 0.38894
 Component Sizing Information, AirTerminal:SingleDuct:VAV:Reheat, AIR TERMINAL SINGLE DUCT VAV REHEAT 10, Maximum Reheat Water Flow Rate [m3/s], 9.23879E-005
 Component Sizing Information, AirTerminal:SingleDuct:VAV:Reheat, AIR TERMINAL SINGLE DUCT VAV REHEAT 10, Reheat Coil Sizing Air Volume Flow Rate [m3/s], 0.12821
 Component Sizing Information, Coil:Heating:Water, COIL HEATING WATER 11, Maximum Water Flow Rate [m3/s], 9.23879E-005
 Component Sizing Information, Coil:Heating:Water, COIL HEATING WATER 11, Design Coil Load [W], 4252.64389
 Component Sizing Information, Coil:Heating:Water, COIL HEATING WATER 11, U-Factor Times Area Value [W/K], 89.06516
Water Heating Coil Capacity Information,Coil:Heating:Water,COIL HEATING WATER 11,4028.62
 Component Sizing Information, AirTerminal:SingleDuct:VAV:Reheat, AIR TERMINAL SINGLE DUCT VAV REHEAT 18, Maximum Air Flow Rate [m3/s], 0.17080
 Component Sizing Information, AirTerminal:SingleDuct:VAV:Reheat, AIR TERMINAL SINGLE DUCT VAV REHEAT 18, Maximum Flow per Zone Floor Area during Reheat [m3/s-m2], 2.08790E-003
 Component Sizing Information, AirTerminal:SingleDuct:VAV:Reheat, AIR TERMINAL SINGLE DUCT VAV REHEAT 18, Maximum Flow Fraction during Reheat [], 0.30000
 Component Sizing Information, AirTerminal:SingleDuct:VAV:Reheat, AIR TERMINAL SINGLE DUCT VAV REHEAT 18, Maximum Reheat Water Flow Rate [m3/s], 1.23073E-004
 Component Sizing Information, AirTerminal:SingleDuct:VAV:Reheat, AIR TERMINAL SINGLE DUCT VAV REHEAT 18, Reheat Coil Sizing Air Volume Flow Rate [m3/s], 0.17080
 Component Sizing Information, Coil:Heating:Water, COIL HEATING WATER 19, Maximum Water Flow Rate [m3/s], 1.23073E-004
 Component Sizing Information, Coil:Heating:Water, COIL HEATING WATER 19, Design Coil Load [W], 5665.07356
 Component Sizing Information, Coil:Heating:Water, COIL HEATING WATER 19, U-Factor Times Area Value [W/K], 118.64635
Water Heating Coil Capacity Information,Coil:Heating:Water,COIL HEATING WATER 19,5366.64
 Component Sizing Information, AirTerminal:SingleDuct:VAV:Reheat, AIR TERMINAL SINGLE DUCT VAV REHEAT 3, Maximum Air Flow Rate [m3/s], 0.12819
 Component Sizing Information, AirTerminal:SingleDuct:VAV:Reheat, AIR TERMINAL SINGLE DUCT VAV REHEAT 3, Maximum Flow per Zone Floor Area during Reheat [m3/s-m2], 2.03200E-003
 Component Sizing Information, AirTerminal:SingleDuct:VAV:Reheat, AIR TERMINAL SINGLE DUCT VAV REHEAT 3, Maximum Flow Fraction during Reheat [], 0.38903
 Component Sizing Information, AirTerminal:SingleDuct:VAV:Reheat, AIR TERMINAL SINGLE DUCT VAV REHEAT 3, Maximum Reheat Water Flow Rate [m3/s], 9.23676E-005
 Component Sizing Information, AirTerminal:SingleDuct:VAV:Reheat, AIR TERMINAL SINGLE DUCT VAV REHEAT 3, Reheat Coil Sizing Air Volume Flow Rate [m3/s], 0.12819
 Component Sizing Information, Coil:Heating:Water, COIL HEATING WATER 4, Maximum Water Flow Rate [m3/s], 9.23676E-005
 Component Sizing Information, Coil:Heating:Water, COIL HEATING WATER 4, Design Coil Load [W], 4251.70942
 Component Sizing Information, Coil:Heating:Water, COIL HEATING WATER 4, U-Factor Times Area Value [W/K], 89.04559
Water Heating Coil Capacity Information,Coil:Heating:Water,COIL HEATING WATER 4,4027.73
 Component Sizing Information, AirTerminal:SingleDuct:VAV:Reheat, AIR TERMINAL SINGLE DUCT VAV REHEAT 21, Maximum Air Flow Rate [m3/s], 0.12676
 Component Sizing Information, AirTerminal:SingleDuct:VAV:Reheat, AIR TERMINAL SINGLE DUCT VAV REHEAT 21, Maximum Flow per Zone Floor Area during Reheat [m3/s-m2], 2.03200E-003
 Component Sizing Information, AirTerminal:SingleDuct:VAV:Reheat, AIR TERMINAL SINGLE DUCT VAV REHEAT 21, Maximum Flow Fraction during Reheat [], 0.39339
 Component Sizing Information, AirTerminal:SingleDuct:VAV:Reheat, AIR TERMINAL SINGLE DUCT VAV REHEAT 21, Maximum Reheat Water Flow Rate [m3/s], 9.13421E-005
 Component Sizing Information, AirTerminal:SingleDuct:VAV:Reheat, AIR TERMINAL SINGLE DUCT VAV REHEAT 21, Reheat Coil Sizing Air Volume Flow Rate [m3/s], 0.12676
 Component Sizing Information, Coil:Heating:Water, COIL HEATING WATER 22, Maximum Water Flow Rate [m3/s], 9.13421E-005
 Component Sizing Information, Coil:Heating:Water, COIL HEATING WATER 22, Design Coil Load [W], 4204.50531
 Component Sizing Information, Coil:Heating:Water, COIL HEATING WATER 22, U-Factor Times Area Value [W/K], 88.05697
Water Heating Coil Capacity Information,Coil:Heating:Water,COIL HEATING WATER 22,3983.01
 Component Sizing Information, AirTerminal:SingleDuct:VAV:Reheat, AIR TERMINAL SINGLE DUCT VAV REHEAT 9, Maximum Air Flow Rate [m3/s], 0.12731
 Component Sizing Information, AirTerminal:SingleDuct:VAV:Reheat, AIR TERMINAL SINGLE DUCT VAV REHEAT 9, Maximum Flow per Zone Floor Area during Reheat [m3/s-m2], 2.03200E-003
 Component Sizing Information, AirTerminal:SingleDuct:VAV:Reheat, AIR TERMINAL SINGLE DUCT VAV REHEAT 9, Maximum Flow Fraction during Reheat [], 0.39170
 Component Sizing Information, AirTerminal:SingleDuct:VAV:Reheat, AIR TERMINAL SINGLE DUCT VAV REHEAT 9, Maximum Reheat Water Flow Rate [m3/s], 9.17362E-005
 Component Sizing Information, AirTerminal:SingleDuct:VAV:Reheat, AIR TERMINAL SINGLE DUCT VAV REHEAT 9, Reheat Coil Sizing Air Volume Flow Rate [m3/s], 0.12731
 Component Sizing Information, Coil:Heating:Water, COIL HEATING WATER 10, Maximum Water Flow Rate [m3/s], 9.17362E-005
 Component Sizing Information, Coil:Heating:Water, COIL HEATING WATER 10, Design Coil Load [W], 4222.64716
 Component Sizing Information, Coil:Heating:Water, COIL HEATING WATER 10, U-Factor Times Area Value [W/K], 88.43692
Water Heating Coil Capacity Information,Coil:Heating:Water,COIL HEATING WATER 10,4000.20
 Component Sizing Information, AirTerminal:SingleDuct:VAV:Reheat, AIR TERMINAL SINGLE DUCT VAV REHEAT 16, Maximum Air Flow Rate [m3/s], 0.13555
 Component Sizing Information, AirTerminal:SingleDuct:VAV:Reheat, AIR TERMINAL SINGLE DUCT VAV REHEAT 16, Maximum Flow per Zone Floor Area during Reheat [m3/s-m2], 2.03200E-003
 Component Sizing Information, AirTerminal:SingleDuct:VAV:Reheat, AIR TERMINAL SINGLE DUCT VAV REHEAT 16, Maximum Flow Fraction during Reheat [], 0.36789
 Component Sizing Information, AirTerminal:SingleDuct:VAV:Reheat, AIR TERMINAL SINGLE DUCT VAV REHEAT 16, Maximum Reheat Water Flow Rate [m3/s], 9.76753E-005
 Component Sizing Information, AirTerminal:SingleDuct:VAV:Reheat, AIR TERMINAL SINGLE DUCT VAV REHEAT 16, Reheat Coil Sizing Air Volume Flow Rate [m3/s], 0.13555
 Component Sizing Information, Coil:Heating:Water, COIL HEATING WATER 17, Maximum Water Flow Rate [m3/s], 9.76753E-005
 Component Sizing Information, Coil:Heating:Water, COIL HEATING WATER 17, Design Coil Load [W], 4496.02198
 Component Sizing Information, Coil:Heating:Water, COIL HEATING WATER 17, U-Factor Times Area Value [W/K], 94.16234
Water Heating Coil Capacity Information,Coil:Heating:Water,COIL HEATING WATER 17,4259.17
 Component Sizing Information, AirTerminal:SingleDuct:VAV:Reheat, AIR TERMINAL SINGLE DUCT VAV REHEAT 13, Maximum Air Flow Rate [m3/s], 0.13513
 Component Sizing Information, AirTerminal:SingleDuct:VAV:Reheat, AIR TERMINAL SINGLE DUCT VAV REHEAT 13, Maximum Flow per Zone Floor Area during Reheat [m3/s-m2], 2.03200E-003
 Component Sizing Information, AirTerminal:SingleDuct:VAV:Reheat, AIR TERMINAL SINGLE DUCT VAV REHEAT 13, Maximum Flow Fraction during Reheat [], 0.36903
 Component Sizing Information, AirTerminal:SingleDuct:VAV:Reheat, AIR TERMINAL SINGLE DUCT VAV REHEAT 13, Maximum Reheat Water Flow Rate [m3/s], 9.73723E-005
 Component Sizing Information, AirTerminal:SingleDuct:VAV:Reheat, AIR TERMINAL SINGLE DUCT VAV REHEAT 13, Reheat Coil Sizing Air Volume Flow Rate [m3/s], 0.13513
 Component Sizing Information, Coil:Heating:Water, COIL HEATING WATER 14, Maximum Water Flow Rate [m3/s], 9.73723E-005
 Component Sizing Information, Coil:Heating:Water, COIL HEATING WATER 14, Design Coil Load [W], 4482.07505
 Component Sizing Information, Coil:Heating:Water, COIL HEATING WATER 14, U-Factor Times Area Value [W/K], 93.87025
Water Heating Coil Capacity Information,Coil:Heating:Water,COIL HEATING WATER 14,4245.96
 Component Sizing Information, AirTerminal:SingleDuct:VAV:Reheat, AIR TERMINAL SINGLE DUCT VAV REHEAT 15, Maximum Air Flow Rate [m3/s], 5.31436E-002
 Component Sizing Information, AirTerminal:SingleDuct:VAV:Reheat, AIR TERMINAL SINGLE DUCT VAV REHEAT 15, Maximum Flow per Zone Floor Area during Reheat [m3/s-m2], 1.98032E-003
 Component Sizing Information, AirTerminal:SingleDuct:VAV:Reheat, AIR TERMINAL SINGLE DUCT VAV REHEAT 15, Maximum Flow Fraction during Reheat [], 1.00000
 Component Sizing Information, AirTerminal:SingleDuct:VAV:Reheat, AIR TERMINAL SINGLE DUCT VAV REHEAT 15, Maximum Reheat Water Flow Rate [m3/s], 1.18889E-005
 Component Sizing Information, AirTerminal:SingleDuct:VAV:Reheat, AIR TERMINAL SINGLE DUCT VAV REHEAT 15, Reheat Coil Sizing Air Volume Flow Rate [m3/s], 1.64991E-002
 Component Sizing Information, Coil:Heating:Water, COIL HEATING WATER 16, Maximum Water Flow Rate [m3/s], 1.18889E-005
 Component Sizing Information, Coil:Heating:Water, COIL HEATING WATER 16, Design Coil Load [W], 547.24992
 Component Sizing Information, Coil:Heating:Water, COIL HEATING WATER 16, U-Factor Times Area Value [W/K], 36.91687
Water Heating Coil Capacity Information,Coil:Heating:Water,COIL HEATING WATER 16,968.06
 Component Sizing Information, AirTerminal:SingleDuct:VAV:Reheat, AIR TERMINAL SINGLE DUCT VAV REHEAT 14, Maximum Air Flow Rate [m3/s], 2.87629E-002
 Component Sizing Information, AirTerminal:SingleDuct:VAV:Reheat, AIR TERMINAL SINGLE DUCT VAV REHEAT 14, Maximum Flow per Zone Floor Area during Reheat [m3/s-m2], 1.07181E-003
 Component Sizing Information, AirTerminal:SingleDuct:VAV:Reheat, AIR TERMINAL SINGLE DUCT VAV REHEAT 14, Maximum Flow Fraction during Reheat [], 1.00000
 Component Sizing Information, AirTerminal:SingleDuct:VAV:Reheat, AIR TERMINAL SINGLE DUCT VAV REHEAT 14, Maximum Reheat Water Flow Rate [m3/s], 2.07259E-005
 Component Sizing Information, AirTerminal:SingleDuct:VAV:Reheat, AIR TERMINAL SINGLE DUCT VAV REHEAT 14, Reheat Coil Sizing Air Volume Flow Rate [m3/s], 2.87629E-002
 Component Sizing Information, Coil:Heating:Water, COIL HEATING WATER 15, Maximum Water Flow Rate [m3/s], 2.07259E-005
 Component Sizing Information, Coil:Heating:Water, COIL HEATING WATER 15, Design Coil Load [W], 954.02016
 Component Sizing Information, Coil:Heating:Water, COIL HEATING WATER 15, U-Factor Times Area Value [W/K], 19.98050
Water Heating Coil Capacity Information,Coil:Heating:Water,COIL HEATING WATER 15,903.76
 Component Sizing Information, AirTerminal:SingleDuct:VAV:Reheat, AIR TERMINAL SINGLE DUCT VAV REHEAT 12, Maximum Air Flow Rate [m3/s], 0.12751
 Component Sizing Information, AirTerminal:SingleDuct:VAV:Reheat, AIR TERMINAL SINGLE DUCT VAV REHEAT 12, Maximum Flow per Zone Floor Area during Reheat [m3/s-m2], 2.03200E-003
 Component Sizing Information, AirTerminal:SingleDuct:VAV:Reheat, AIR TERMINAL SINGLE DUCT VAV REHEAT 12, Maximum Flow Fraction during Reheat [], 0.39110
 Component Sizing Information, AirTerminal:SingleDuct:VAV:Reheat, AIR TERMINAL SINGLE DUCT VAV REHEAT 12, Maximum Reheat Water Flow Rate [m3/s], 9.18783E-005
 Component Sizing Information, AirTerminal:SingleDuct:VAV:Reheat, AIR TERMINAL SINGLE DUCT VAV REHEAT 12, Reheat Coil Sizing Air Volume Flow Rate [m3/s], 0.12751
 Component Sizing Information, Coil:Heating:Water, COIL HEATING WATER 13, Maximum Water Flow Rate [m3/s], 9.18783E-005
 Component Sizing Information, Coil:Heating:Water, COIL HEATING WATER 13, Design Coil Load [W], 4229.18749
 Component Sizing Information, Coil:Heating:Water, COIL HEATING WATER 13, U-Factor Times Area Value [W/K], 88.57390
Water Heating Coil Capacity Information,Coil:Heating:Water,COIL HEATING WATER 13,4006.40
 Component Sizing Information, AirTerminal:SingleDuct:VAV:Reheat, AIR TERMINAL SINGLE DUCT VAV REHEAT 7, Maximum Air Flow Rate [m3/s], 0.13554
 Component Sizing Information, AirTerminal:SingleDuct:VAV:Reheat, AIR TERMINAL SINGLE DUCT VAV REHEAT 7, Maximum Flow per Zone Floor Area during Reheat [m3/s-m2], 2.03200E-003
 Component Sizing Information, AirTerminal:SingleDuct:VAV:Reheat, AIR TERMINAL SINGLE DUCT VAV REHEAT 7, Maximum Flow Fraction during Reheat [], 0.36792
 Component Sizing Information, AirTerminal:SingleDuct:VAV:Reheat, AIR TERMINAL SINGLE DUCT VAV REHEAT 7, Maximum Reheat Water Flow Rate [m3/s], 9.76665E-005
 Component Sizing Information, AirTerminal:SingleDuct:VAV:Reheat, AIR TERMINAL SINGLE DUCT VAV REHEAT 7, Reheat Coil Sizing Air Volume Flow Rate [m3/s], 0.13554
 Component Sizing Information, Coil:Heating:Water, COIL HEATING WATER 8, Maximum Water Flow Rate [m3/s], 9.76665E-005
 Component Sizing Information, Coil:Heating:Water, COIL HEATING WATER 8, Design Coil Load [W], 4495.61684
 Component Sizing Information, Coil:Heating:Water, COIL HEATING WATER 8, U-Factor Times Area Value [W/K], 94.15386
Water Heating Coil Capacity Information,Coil:Heating:Water,COIL HEATING WATER 8,4258.79
 Component Sizing Information, AirTerminal:SingleDuct:VAV:Reheat, AIR TERMINAL SINGLE DUCT VAV REHEAT 6, Maximum Air Flow Rate [m3/s], 0.17083
 Component Sizing Information, AirTerminal:SingleDuct:VAV:Reheat, AIR TERMINAL SINGLE DUCT VAV REHEAT 6, Maximum Flow per Zone Floor Area during Reheat [m3/s-m2], 2.08826E-003
 Component Sizing Information, AirTerminal:SingleDuct:VAV:Reheat, AIR TERMINAL SINGLE DUCT VAV REHEAT 6, Maximum Flow Fraction during Reheat [], 0.30000
 Component Sizing Information, AirTerminal:SingleDuct:VAV:Reheat, AIR TERMINAL SINGLE DUCT VAV REHEAT 6, Maximum Reheat Water Flow Rate [m3/s], 1.23094E-004
 Component Sizing Information, AirTerminal:SingleDuct:VAV:Reheat, AIR TERMINAL SINGLE DUCT VAV REHEAT 6, Reheat Coil Sizing Air Volume Flow Rate [m3/s], 0.17083
 Component Sizing Information, Coil:Heating:Water, COIL HEATING WATER 7, Maximum Water Flow Rate [m3/s], 1.23094E-004
 Component Sizing Information, Coil:Heating:Water, COIL HEATING WATER 7, Design Coil Load [W], 5666.04397
 Component Sizing Information, Coil:Heating:Water, COIL HEATING WATER 7, U-Factor Times Area Value [W/K], 118.66668
Water Heating Coil Capacity Information,Coil:Heating:Water,COIL HEATING WATER 7,5367.56
 Component Sizing Information, AirTerminal:SingleDuct:VAV:Reheat, AIR TERMINAL SINGLE DUCT VAV REHEAT 20, Maximum Air Flow Rate [m3/s], 6.19250E-002
 Component Sizing Information, AirTerminal:SingleDuct:VAV:Reheat, AIR TERMINAL SINGLE DUCT VAV REHEAT 20, Maximum Flow per Zone Floor Area during Reheat [m3/s-m2], 2.03200E-003
 Component Sizing Information, AirTerminal:SingleDuct:VAV:Reheat, AIR TERMINAL SINGLE DUCT VAV REHEAT 20, Maximum Flow Fraction during Reheat [], 0.88059
 Component Sizing Information, AirTerminal:SingleDuct:VAV:Reheat, AIR TERMINAL SINGLE DUCT VAV REHEAT 20, Maximum Reheat Water Flow Rate [m3/s], 4.46218E-005
 Component Sizing Information, AirTerminal:SingleDuct:VAV:Reheat, AIR TERMINAL SINGLE DUCT VAV REHEAT 20, Reheat Coil Sizing Air Volume Flow Rate [m3/s], 6.19250E-002
 Component Sizing Information, Coil:Heating:Water, COIL HEATING WATER 21, Maximum Water Flow Rate [m3/s], 4.46218E-005
 Component Sizing Information, Coil:Heating:Water, COIL HEATING WATER 21, Design Coil Load [W], 2053.95458
 Component Sizing Information, Coil:Heating:Water, COIL HEATING WATER 21, U-Factor Times Area Value [W/K], 43.01696
Water Heating Coil Capacity Information,Coil:Heating:Water,COIL HEATING WATER 21,1945.75
 Component Sizing Information, AirTerminal:SingleDuct:VAV:Reheat, AIR TERMINAL SINGLE DUCT VAV REHEAT 11, Maximum Air Flow Rate [m3/s], 0.12819
 Component Sizing Information, AirTerminal:SingleDuct:VAV:Reheat, AIR TERMINAL SINGLE DUCT VAV REHEAT 11, Maximum Flow per Zone Floor Area during Reheat [m3/s-m2], 2.03200E-003
 Component Sizing Information, AirTerminal:SingleDuct:VAV:Reheat, AIR TERMINAL SINGLE DUCT VAV REHEAT 11, Maximum Flow Fraction during Reheat [], 0.38903
 Component Sizing Information, AirTerminal:SingleDuct:VAV:Reheat, AIR TERMINAL SINGLE DUCT VAV REHEAT 11, Maximum Reheat Water Flow Rate [m3/s], 9.23676E-005
 Component Sizing Information, AirTerminal:SingleDuct:VAV:Reheat, AIR TERMINAL SINGLE DUCT VAV REHEAT 11, Reheat Coil Sizing Air Volume Flow Rate [m3/s], 0.12819
 Component Sizing Information, Coil:Heating:Water, COIL HEATING WATER 12, Maximum Water Flow Rate [m3/s], 9.23676E-005
 Component Sizing Information, Coil:Heating:Water, COIL HEATING WATER 12, Design Coil Load [W], 4251.70942
 Component Sizing Information, Coil:Heating:Water, COIL HEATING WATER 12, U-Factor Times Area Value [W/K], 89.04559
Water Heating Coil Capacity Information,Coil:Heating:Water,COIL HEATING WATER 12,4027.73
 Component Sizing Information, Branch, BRANCH {1A7B9D40-BE18-4C5B-BFC4-4E5AF4E6DC79}, Maximum Flow Rate [m3/s], 2.36906
 Component Sizing Information, AirLoopHVAC, AIR LOOP HVAC 1, Design Supply Air Flow Rate [m3/s], 2.36906
 Component Sizing Information, Controller:OutdoorAir, CONTROLLER OUTDOOR AIR 1, Maximum Outdoor Air Flow Rate [m3/s], 2.36906
 Component Sizing Information, Controller:OutdoorAir, CONTROLLER OUTDOOR AIR 1, Minimum Outdoor Air Flow Rate [m3/s], 0.25400
 Component Sizing Information, Coil:Cooling:DX:TwoSpeed, COIL COOLING DX TWO SPEED 1, Rated High Speed Air Flow Rate [m3/s], 2.36906
 Component Sizing Information, Coil:Cooling:DX:TwoSpeed, COIL COOLING DX TWO SPEED 1, Rated High Speed Total Cooling Capacity (gross) [W], 58829.42505
 Component Sizing Information, Coil:Cooling:DX:TwoSpeed, COIL COOLING DX TWO SPEED 1, Rated High Speed Sensible Heat Ratio, 0.67608
 Component Sizing Information, Coil:Cooling:DX:TwoSpeed, COIL COOLING DX TWO SPEED 1, Rated Low Speed Air Flow Rate [m3/s], 0.78961
 Component Sizing Information, Coil:Cooling:DX:TwoSpeed, COIL COOLING DX TWO SPEED 1, Rated Low Speed Total Cooling Capacity (gross) [W], 19607.84737
! <VAV DX Cooling Coil Standard Rating Information>, DX Coil Type, DX Coil Name, Fan Type, Fan Name, Standard Net Cooling Capacity {W}, Standard Net Cooling Capacity {Btu/h}, IEER {Btu/W-h}, COP 100% Capacity {W/W}, COP 75% Capacity {W/W}, COP 50% Capacity {W/W}, COP 25% Capacity {W/W}, EER 100% Capacity {Btu/W-h}, EER 75% Capacity {Btu/W-h}, EER 50% Capacity {Btu/W-h}, EER 25% Capacity {Btu/W-h}, Supply Air Flow 100% {kg/s}, Supply Air Flow 75% {kg/s},Supply Air Flow 50% {kg/s},Supply Air Flow 25% {kg/s}
 VAV DX Cooling Coil Standard Rating Information, Coil:Cooling:DX:TwoSpeed,COIL COOLING DX TWO SPEED 1,N/A,N/A,57097.06,194823.25,25.83,4.59,6.18,8.70,12.79,15.66,21.07,29.68,43.64,2.6755,2.1436,1.4756,0.7575,
 Component Sizing Information, Coil:Heating:Water, COIL HEATING WATER 1, Maximum Water Flow Rate [m3/s], 5.98408E-004
 Component Sizing Information, Coil:Heating:Water, COIL HEATING WATER 1, Design Coil Load [W], 27544.88811
 Component Sizing Information, Coil:Heating:Water, COIL HEATING WATER 1, U-Factor Times Area Value [W/K], 354.28682
Water Heating Coil Capacity Information,Coil:Heating:Water,COIL HEATING WATER 1,19840.85
 Component Sizing Information, Fan:VariableVolume, FAN VARIABLE VOLUME 1, Maximum Flow Rate [m3/s], 2.36906
 Component Sizing Information, Controller:WaterCoil, CONTROLLER WATER COIL 1, Maximum Actuated Flow [m3/s], 5.98408E-004
 Component Sizing Information, Controller:WaterCoil, CONTROLLER WATER COIL 1, Controller Convergence Tolerance, 7.95763E-004
 Component Sizing Information, Boiler:HotWater, BOILER HOT WATER 1, Nominal Capacity [W], 106538.49591
 Component Sizing Information, Boiler:HotWater, BOILER HOT WATER 1, Design Water Flow Rate [m3/s], 2.30560E-003
 Component Sizing Information, PlantLoop, PLANT LOOP 1, Maximum Loop Flow Rate [m3/s], 2.30560E-003
 Component Sizing Information, PlantLoop, PLANT LOOP 1, Plant Loop Volume [m3], 2.59381
 Component Sizing Information, Pump:VariableSpeed, PUMP VARIABLE SPEED 1, Rated Flow Rate [m3/s], 2.30560E-003
 Component Sizing Information, Pump:VariableSpeed, PUMP VARIABLE SPEED 1, Rated Power Consumption [W], 589.05240
! <Environment>,Environment Name,Environment Type, Start Date, End Date, Start DayOfWeek, Duration {#days}, Source:Start DayOfWeek,  Use Daylight Saving, Use Holidays, Apply Weekend Holiday Rule,  Use Rain Values, Use Snow Values
! <Environment:Special Days>, Special Day Name, Special Day Type, Source, Start Date, Duration {#days}
! <Environment:Daylight Saving>, Daylight Saving Indicator, Source, Start Date, End Date
! <Environment:WarmupDays>, NumberofWarmupDays
Environment,CHICAGO OHARE INTL AP ANN CLG 2% CONDNS WB=>MDB,SizingPeriod:DesignDay,07/21,07/21,SummerDesignDay,1,N/A,N/A,N/A,N/A,N/A,N/A
Environment:Daylight Saving,No,SizingPeriod:DesignDay
! <Environment:Design Day Data>, Max Dry-Bulb Temp {C}, Temp Range {dC}, Temp Range Ind Type, Hum Ind Value at Max Temp, Hum Ind Type,Pressure {Pa}, Wind Direction {deg CW from N}, Wind Speed {m/s}, Clearness, Rain, Snow
! <Environment:Design_Day_Misc>,DayOfYear,ASHRAE A Coeff,ASHRAE B Coeff,ASHRAE C Coeff,Solar Constant-Annual Variation,Eq of Time {minutes}, Solar Declination Angle {deg}, Solar Model
Environment:Design Day Data,28.10,10.50,DefaultMultipliers,98934,230,5.2,0.00,No ,No 
Environment:Design_Day_Misc,202,1084.4,0.2082,0.1365,1.0,-6.23,20.6,ASHRAETau
Environment:WarmupDays,  6
! <Tabular Report>,Style
Tabular Report,HTML
! <Warmup Convergence Information>,Zone Name,Environment Type/Name,Average Warmup Temperature Difference {deltaC},Std Dev Warmup Temperature Difference {deltaC},Max Temperature Pass/Fail Convergence,Min Temperature Pass/Fail Convergence,Average Warmup Load Difference {W},Std Dev Warmup Load Difference {W},Heating Load Pass/Fail Convergence,Cooling Load Pass/Fail Convergence
 Warmup Convergence Information,THERMAL ZONE 11,SizingPeriod: CHICAGO OHARE INTL AP ANN CLG 2% CONDNS WB=>MDB,8.8634610018E-005,1.7839476921E-004,Pass,Pass,8.3079354081E-003,1.1894798402E-002,Pass,Pass
 Warmup Convergence Information,THERMAL ZONE 1,SizingPeriod: CHICAGO OHARE INTL AP ANN CLG 2% CONDNS WB=>MDB,5.8774220247E-002,5.1841100670E-002,Pass,Pass,9.0336722009E-003,1.4018988135E-002,Pass,Pass
 Warmup Convergence Information,THERMAL ZONE 15,SizingPeriod: CHICAGO OHARE INTL AP ANN CLG 2% CONDNS WB=>MDB,8.3417591156E-002,9.3336609127E-002,Pass,Pass,1.0802843748E-002,1.1853912690E-002,Pass,Pass
 Warmup Convergence Information,THERMAL ZONE 3,SizingPeriod: CHICAGO OHARE INTL AP ANN CLG 2% CONDNS WB=>MDB,3.7202050274E-002,4.5083829942E-002,Pass,Pass,2.3334038384E-002,3.8329640618E-002,Pass,Pass
 Warmup Convergence Information,THERMAL ZONE 9,SizingPeriod: CHICAGO OHARE INTL AP ANN CLG 2% CONDNS WB=>MDB,6.1202768082E-002,6.5771428061E-002,Pass,Pass,1.8947260805E-002,2.0829691918E-002,Pass,Pass
 Warmup Convergence Information,THERMAL ZONE 14,SizingPeriod: CHICAGO OHARE INTL AP ANN CLG 2% CONDNS WB=>MDB,6.6431066900E-002,7.4924220523E-002,Pass,Pass,1.4560553105E-002,1.3131762110E-002,Pass,Pass
 Warmup Convergence Information,THERMAL ZONE 8,SizingPeriod: CHICAGO OHARE INTL AP ANN CLG 2% CONDNS WB=>MDB,5.5687478627E-002,6.0384972733E-002,Pass,Pass,1.9087144263E-002,2.2265747723E-002,Pass,Pass
 Warmup Convergence Information,THERMAL ZONE 16,SizingPeriod: CHICAGO OHARE INTL AP ANN CLG 2% CONDNS WB=>MDB,8.3408073040E-002,6.4981509749E-002,Pass,Pass,1.1736477990E-002,1.7341737840E-002,Pass,Pass
 Warmup Convergence Information,THERMAL ZONE 13,SizingPeriod: CHICAGO OHARE INTL AP ANN CLG 2% CONDNS WB=>MDB,6.0700908915E-002,7.3424690624E-002,Pass,Pass,1.4832304751E-002,1.2926832324E-002,Pass,Pass
 Warmup Convergence Information,THERMAL ZONE 17,SizingPeriod: CHICAGO OHARE INTL AP ANN CLG 2% CONDNS WB=>MDB,6.5819181447E-002,9.8493028686E-002,Pass,Pass,1.4728055976E-002,1.5350707824E-002,Pass,Pass
 Warmup Convergence Information,THERMAL ZONE 2,SizingPeriod: CHICAGO OHARE INTL AP ANN CLG 2% CONDNS WB=>MDB,5.9794776848E-002,9.6413003731E-002,Pass,Pass,1.5137297589E-002,1.4920465351E-002,Pass,Pass
 Warmup Convergence Information,THERMAL ZONE 20,SizingPeriod: CHICAGO OHARE INTL AP ANN CLG 2% CONDNS WB=>MDB,8.3723754661E-002,0.1058550114,Pass,Pass,2.7571525939E-002,3.8131380623E-002,Pass,Pass
 Warmup Convergence Information,THERMAL ZONE 19,SizingPeriod: CHICAGO OHARE INTL AP ANN CLG 2% CONDNS WB=>MDB,7.1272324152E-002,8.1916291876E-002,Pass,Pass,2.4661998680E-002,3.3959272933E-002,Pass,Pass
 Warmup Convergence Information,THERMAL ZONE 12,SizingPeriod: CHICAGO OHARE INTL AP ANN CLG 2% CONDNS WB=>MDB,9.2853991125E-005,1.9472837026E-004,Pass,Pass,9.8580822659E-003,1.3069627670E-002,Pass,Pass
 Warmup Convergence Information,THERMAL ZONE 6,SizingPeriod: CHICAGO OHARE INTL AP ANN CLG 2% CONDNS WB=>MDB,3.7074718878E-002,3.3838452075E-002,Pass,Pass,1.4272210221E-002,2.1296199775E-002,Pass,Pass
 Warmup Convergence Information,THERMAL ZONE 7,SizingPeriod: CHICAGO OHARE INTL AP ANN CLG 2% CONDNS WB=>MDB,6.6713663414E-002,5.5377982651E-002,Pass,Pass,4.9993043883E-003,4.9826564812E-003,Pass,Pass
 Warmup Convergence Information,THERMAL ZONE 10,SizingPeriod: CHICAGO OHARE INTL AP ANN CLG 2% CONDNS WB=>MDB,7.2742613811E-002,7.5062529610E-002,Pass,Pass,2.4720362948E-002,4.0976688899E-002,Pass,Pass
 Warmup Convergence Information,THERMAL ZONE 18,SizingPeriod: CHICAGO OHARE INTL AP ANN CLG 2% CONDNS WB=>MDB,8.3400748442E-002,7.6919545923E-002,Pass,Pass,1.5571496853E-002,1.8155898057E-002,Pass,Pass
 Warmup Convergence Information,THERMAL ZONE 5,SizingPeriod: CHICAGO OHARE INTL AP ANN CLG 2% CONDNS WB=>MDB,3.1776386441E-003,1.5764227079E-002,Pass,Pass,1.7673268251E-002,3.8355244433E-002,Pass,Pass
 Warmup Convergence Information,THERMAL ZONE 4,SizingPeriod: CHICAGO OHARE INTL AP ANN CLG 2% CONDNS WB=>MDB,6.3095668595E-002,5.6201989484E-002,Pass,Pass,5.5170853631E-003,5.7563243671E-003,Pass,Pass
[...]
 Warmup Convergence Information,THERMAL ZONE 8,SizingPeriod: CHICAGO OHARE INTL AP ANN CLG 1% CONDNS DB=>MWB,3.6013948706E-002,4.0960427478E-002,Pass,Pass,2.0019790507E-002,2.3635024795E-002,Pass,Pass
 Warmup Convergence Information,THERMAL ZONE 16,SizingPeriod: CHICAGO OHARE INTL AP ANN CLG 1% CONDNS DB=>MWB,6.7505663950E-002,6.4091942448E-002,Pass,Pass,1.1264301520E-002,9.4582978852E-003,Pass,Pass
 Warmup Convergence Information,THERMAL ZONE 13,SizingPeriod: CHICAGO OHARE INTL AP ANN CLG 1% CONDNS DB=>MWB,4.0923571921E-002,5.5343992582E-002,Pass,Pass,1.6155744702E-002,1.4992180948E-002,Pass,Pass
 Warmup Convergence Information,THERMAL ZONE 17,SizingPeriod: CHICAGO OHARE INTL AP ANN CLG 1% CONDNS DB=>MWB,4.6994875628E-002,8.2619049754E-002,Pass,Pass,1.6199468549E-002,1.6440438065E-002,Pass,Pass
 Warmup Convergence Information,THERMAL ZONE 2,SizingPeriod: CHICAGO OHARE INTL AP ANN CLG 1% CONDNS DB=>MWB,4.0436416636E-002,7.9163349828E-002,Pass,Pass,1.6663307264E-002,1.6215500875E-002,Pass,Pass
 Warmup Convergence Information,THERMAL ZONE 20,SizingPeriod: CHICAGO OHARE INTL AP ANN CLG 1% CONDNS DB=>MWB,8.3602820007E-002,9.1525473520E-002,Pass,Pass,2.1262227921E-002,2.5587507314E-002,Pass,Pass
 Warmup Convergence Information,THERMAL ZONE 19,SizingPeriod: CHICAGO OHARE INTL AP ANN CLG 1% CONDNS DB=>MWB,8.2403763881E-002,9.2708689334E-002,Pass,Pass,1.5169081307E-002,1.8514152278E-002,Pass,Pass
 Warmup Convergence Information,THERMAL ZONE 12,SizingPeriod: CHICAGO OHARE INTL AP ANN CLG 1% CONDNS DB=>MWB,7.1237978735E-005,1.1690513741E-004,Pass,Pass,7.6850234892E-003,1.1703358517E-002,Pass,Pass
 Warmup Convergence Information,THERMAL ZONE 6,SizingPeriod: CHICAGO OHARE INTL AP ANN CLG 1% CONDNS DB=>MWB,3.2052389266E-002,3.1290265361E-002,Pass,Pass,1.7522479245E-002,2.5505179343E-002,Pass,Pass
 Warmup Convergence Information,THERMAL ZONE 7,SizingPeriod: CHICAGO OHARE INTL AP ANN CLG 1% CONDNS DB=>MWB,4.8656920404E-002,4.8842919761E-002,Pass,Pass,7.3796069570E-003,7.5303770605E-003,Pass,Pass
 Warmup Convergence Information,THERMAL ZONE 10,SizingPeriod: CHICAGO OHARE INTL AP ANN CLG 1% CONDNS DB=>MWB,8.3572040898E-002,7.2073540419E-002,Pass,Pass,1.5591284551E-002,2.2433090944E-002,Pass,Pass
 Warmup Convergence Information,THERMAL ZONE 18,SizingPeriod: CHICAGO OHARE INTL AP ANN CLG 1% CONDNS DB=>MWB,6.3574544794E-002,6.5358574838E-002,Pass,Pass,1.5558610890E-002,1.7601275667E-002,Pass,Pass
 Warmup Convergence Information,THERMAL ZONE 5,SizingPeriod: CHICAGO OHARE INTL AP ANN CLG 1% CONDNS DB=>MWB,5.5698488802E-005,1.2553881036E-004,Pass,Pass,1.1789362820E-002,2.1210577290E-002,Pass,Pass
 Warmup Convergence Information,THERMAL ZONE 4,SizingPeriod: CHICAGO OHARE INTL AP ANN CLG 1% CONDNS DB=>MWB,4.2369556172E-002,5.0065271227E-002,Pass,Pass,8.1378523426E-003,7.7718844736E-003,Pass,Pass
Environment,CHICAGO OHARE INTL AP ANN CLG 2% CONDNS DP=>MDB,SizingPeriod:DesignDay,07/21,07/21,SummerDesignDay,1,N/A,N/A,N/A,N/A,N/A,N/A
Environment:Daylight Saving,No,SizingPeriod:DesignDay
Environment:Design Day Data,26.50,10.50,DefaultMultipliers,98934,230,5.2,0.00,No ,No 
Environment:Design_Day_Misc,202,1084.4,0.2082,0.1365,1.0,-6.23,20.6,ASHRAETau
Environment:WarmupDays,  6
 Warmup Convergence Information,THERMAL ZONE 11,SizingPeriod: CHICAGO OHARE INTL AP ANN CLG 2% CONDNS DP=>MDB,8.8613366796E-005,1.8195117287E-004,Pass,Pass,9.3653597980E-003,1.2659912432E-002,Pass,Pass
 Warmup Convergence Information,THERMAL ZONE 1,SizingPeriod: CHICAGO OHARE INTL AP ANN CLG 2% CONDNS DP=>MDB,5.0607202390E-002,5.0975655961E-002,Pass,Pass,1.3434629560E-002,2.9112028569E-002,Pass,Pass
 Warmup Convergence Information,THERMAL ZONE 15,SizingPeriod: CHICAGO OHARE INTL AP ANN CLG 2% CONDNS DP=>MDB,8.0571236759E-002,9.6677122466E-002,Pass,Pass,1.3979669901E-002,1.8343497238E-002,Pass,Pass
 Warmup Convergence Information,THERMAL ZONE 3,SizingPeriod: CHICAGO OHARE INTL AP ANN CLG 2% CONDNS DP=>MDB,3.1823819828E-002,3.7595394357E-002,Pass,Pass,3.2907650849E-002,6.0693359203E-002,Pass,Pass
 Warmup Convergence Information,THERMAL ZONE 9,SizingPeriod: CHICAGO OHARE INTL AP ANN CLG 2% CONDNS DP=>MDB,7.0307805392E-002,7.9036195795E-002,Pass,Pass,1.8440195342E-002,2.0455676511E-002,Pass,Pass
 Warmup Convergence Information,THERMAL ZONE 14,SizingPeriod: CHICAGO OHARE INTL AP ANN CLG 2% CONDNS DP=>MDB,7.5608405746E-002,7.9680033928E-002,Pass,Pass,1.3805280799E-002,1.2341419395E-002,Pass,Pass
 Warmup Convergence Information,THERMAL ZONE 8,SizingPeriod: CHICAGO OHARE INTL AP ANN CLG 2% CONDNS DP=>MDB,6.5240713153E-002,7.5026047423E-002,Pass,Pass,1.8537042122E-002,2.0383603322E-002,Pass,Pass
 Warmup Convergence Information,THERMAL ZONE 16,SizingPeriod: CHICAGO OHARE INTL AP ANN CLG 2% CONDNS DP=>MDB,8.2241548484E-002,6.7491316186E-002,Pass,Pass,1.4066474081E-002,3.2790009758E-002,Pass,Pass
 Warmup Convergence Information,THERMAL ZONE 13,SizingPeriod: CHICAGO OHARE INTL AP ANN CLG 2% CONDNS DP=>MDB,7.0342994356E-002,7.8894559019E-002,Pass,Pass,1.4067995040E-002,1.2218020406E-002,Pass,Pass
 Warmup Convergence Information,THERMAL ZONE 17,SizingPeriod: CHICAGO OHARE INTL AP ANN CLG 2% CONDNS DP=>MDB,7.4980001770E-002,0.1040253213,Pass,Pass,1.3859129727E-002,1.3371022542E-002,Pass,Pass
 Warmup Convergence Information,THERMAL ZONE 2,SizingPeriod: CHICAGO OHARE INTL AP ANN CLG 2% CONDNS DP=>MDB,6.9394360800E-002,0.1029521369,Pass,Pass,1.4249539756E-002,1.3841941449E-002,Pass,Pass
 Warmup Convergence Information,THERMAL ZONE 20,SizingPeriod: CHICAGO OHARE INTL AP ANN CLG 2% CONDNS DP=>MDB,8.3809145770E-002,0.1105396436,Pass,Pass,3.2516444332E-002,4.8885978003E-002,Pass,Pass
 Warmup Convergence Information,THERMAL ZONE 19,SizingPeriod: CHICAGO OHARE INTL AP ANN CLG 2% CONDNS DP=>MDB,6.6452094464E-002,7.3273943582E-002,Pass,Pass,3.3016917431E-002,5.8056564382E-002,Pass,Pass
 Warmup Convergence Information,THERMAL ZONE 12,SizingPeriod: CHICAGO OHARE INTL AP ANN CLG 2% CONDNS DP=>MDB,9.5363460440E-005,2.0239046665E-004,Pass,Pass,1.1264110868E-002,1.3958010369E-002,Pass,Pass
 Warmup Convergence Information,THERMAL ZONE 6,SizingPeriod: CHICAGO OHARE INTL AP ANN CLG 2% CONDNS DP=>MDB,3.9232259355E-002,3.3231911487E-002,Pass,Pass,1.2437043588E-002,1.9976807150E-002,Pass,Pass
 Warmup Convergence Information,THERMAL ZONE 7,SizingPeriod: CHICAGO OHARE INTL AP ANN CLG 2% CONDNS DP=>MDB,6.9261381534E-002,6.1772867634E-002,Pass,Pass,5.3325864316E-003,5.5474187381E-003,Pass,Pass
 Warmup Convergence Information,THERMAL ZONE 10,SizingPeriod: CHICAGO OHARE INTL AP ANN CLG 2% CONDNS DP=>MDB,6.7246750201E-002,6.9172266928E-002,Pass,Pass,3.1624018531E-002,5.5110885019E-002,Pass,Pass
 Warmup Convergence Information,THERMAL ZONE 18,SizingPeriod: CHICAGO OHARE INTL AP ANN CLG 2% CONDNS DP=>MDB,8.3446163069E-002,8.1221421722E-002,Pass,Pass,1.8378818903E-002,3.0149295977E-002,Pass,Pass
 Warmup Convergence Information,THERMAL ZONE 5,SizingPeriod: CHICAGO OHARE INTL AP ANN CLG 2% CONDNS DP=>MDB,9.7651688466E-003,3.6460445605E-002,Pass,Pass,1.4717246147E-002,2.4187341434E-002,Pass,Pass
 Warmup Convergence Information,THERMAL ZONE 4,SizingPeriod: CHICAGO OHARE INTL AP ANN CLG 2% CONDNS DP=>MDB,6.8017695567E-002,6.1312016956E-002,Pass,Pass,5.1524474582E-003,5.4278134698E-003,Pass,Pass
Environment,CHICAGO OHARE INTL AP ANN HTG 99.6% CONDNS DB,SizingPeriod:DesignDay,01/21,01/21,WinterDesignDay,1,N/A,N/A,N/A,N/A,N/A,N/A
Environment:Daylight Saving,No,SizingPeriod:DesignDay
Environment:Design Day Data,-20.00,0.00,DefaultMultipliers,98934,270,4.9,0.00,No ,No 
Environment:Design_Day_Misc, 21,1229.0,0.1415,5.7310E-002,1.0,-11.15,-20.1,ASHRAEClearSky
Environment:WarmupDays,  6
 Warmup Convergence Information,THERMAL ZONE 11,SizingPeriod: CHICAGO OHARE INTL AP ANN HTG 99.6% CONDNS DB,1.4189621215E-003,1.1055978471E-003,Pass,Pass,7.9087173579E-003,5.3983558367E-003,Pass,Pass
 Warmup Convergence Information,THERMAL ZONE 1,SizingPeriod: CHICAGO OHARE INTL AP ANN HTG 99.6% CONDNS DB,4.4118569327E-002,0.1666832352,Pass,Pass,7.4046965680E-003,3.0156334500E-002,Pass,Pass
 Warmup Convergence Information,THERMAL ZONE 15,SizingPeriod: CHICAGO OHARE INTL AP ANN HTG 99.6% CONDNS DB,4.4055678826E-002,0.1663375266,Pass,Pass,7.5013072450E-003,3.0495987049E-002,Pass,Pass
 Warmup Convergence Information,THERMAL ZONE 3,SizingPeriod: CHICAGO OHARE INTL AP ANN HTG 99.6% CONDNS DB,3.8753993918E-002,0.1259516950,Pass,Pass,5.0276049740E-003,1.9830855552E-002,Pass,Pass
 Warmup Convergence Information,THERMAL ZONE 9,SizingPeriod: CHICAGO OHARE INTL AP ANN HTG 99.6% CONDNS DB,3.9339576637E-002,0.1265539062,Pass,Pass,5.3806060358E-003,2.1247693521E-002,Pass,Pass
 Warmup Convergence Information,THERMAL ZONE 14,SizingPeriod: CHICAGO OHARE INTL AP ANN HTG 99.6% CONDNS DB,3.9161915060E-002,0.1266138404,Pass,Pass,5.3810411717E-003,2.1244045608E-002,Pass,Pass
 Warmup Convergence Information,THERMAL ZONE 8,SizingPeriod: CHICAGO OHARE INTL AP ANN HTG 99.6% CONDNS DB,3.9380468722E-002,0.1268531241,Pass,Pass,5.3078206567E-003,2.0879784422E-002,Pass,Pass
 Warmup Convergence Information,THERMAL ZONE 16,SizingPeriod: CHICAGO OHARE INTL AP ANN HTG 99.6% CONDNS DB,4.4118569328E-002,0.1666832352,Pass,Pass,7.4046965680E-003,3.0156334500E-002,Pass,Pass
 Warmup Convergence Information,THERMAL ZONE 13,SizingPeriod: CHICAGO OHARE INTL AP ANN HTG 99.6% CONDNS DB,3.9487802018E-002,0.1268393391,Pass,Pass,5.3084849029E-003,2.0891551542E-002,Pass,Pass
 Warmup Convergence Information,THERMAL ZONE 17,SizingPeriod: CHICAGO OHARE INTL AP ANN HTG 99.6% CONDNS DB,3.8991772114E-002,0.1268192557,Pass,Pass,5.3959265422E-003,2.1269581637E-002,Pass,Pass
 Warmup Convergence Information,THERMAL ZONE 2,SizingPeriod: CHICAGO OHARE INTL AP ANN HTG 99.6% CONDNS DB,3.9456134426E-002,0.1269915554,Pass,Pass,5.4829318223E-003,2.0903202804E-002,Pass,Pass
 Warmup Convergence Information,THERMAL ZONE 20,SizingPeriod: CHICAGO OHARE INTL AP ANN HTG 99.6% CONDNS DB,3.8752240547E-002,0.1259472222,Pass,Pass,5.0271920543E-003,1.9829430026E-002,Pass,Pass
 Warmup Convergence Information,THERMAL ZONE 19,SizingPeriod: CHICAGO OHARE INTL AP ANN HTG 99.6% CONDNS DB,3.9025954005E-002,0.1260325925,Pass,Pass,5.1258367202E-003,1.9875212987E-002,Pass,Pass
 Warmup Convergence Information,THERMAL ZONE 12,SizingPeriod: CHICAGO OHARE INTL AP ANN HTG 99.6% CONDNS DB,1.3501981066E-003,1.1848823203E-003,Pass,Pass,7.3781489320E-003,5.2239267290E-003,Pass,Pass
 Warmup Convergence Information,THERMAL ZONE 6,SizingPeriod: CHICAGO OHARE INTL AP ANN HTG 99.6% CONDNS DB,1.3494618509E-002,9.3126314124E-003,Pass,Pass,1.2046351496E-003,8.4296029440E-004,Pass,Pass
 Warmup Convergence Information,THERMAL ZONE 7,SizingPeriod: CHICAGO OHARE INTL AP ANN HTG 99.6% CONDNS DB,3.9161915060E-002,0.1266138404,Pass,Pass,5.3810411717E-003,2.1244045608E-002,Pass,Pass
 Warmup Convergence Information,THERMAL ZONE 10,SizingPeriod: CHICAGO OHARE INTL AP ANN HTG 99.6% CONDNS DB,3.8753993918E-002,0.1259516950,Pass,Pass,5.0276049740E-003,1.9830855552E-002,Pass,Pass
 Warmup Convergence Information,THERMAL ZONE 18,SizingPeriod: CHICAGO OHARE INTL AP ANN HTG 99.6% CONDNS DB,4.4113303502E-002,0.1666644869,Pass,Pass,7.4036697908E-003,3.0152301115E-002,Pass,Pass
 Warmup Convergence Information,THERMAL ZONE 5,SizingPeriod: CHICAGO OHARE INTL AP ANN HTG 99.6% CONDNS DB,3.6839029903E-002,8.8478700949E-002,Pass,Pass,7.0844996804E-003,2.3851263598E-002,Pass,Pass
 Warmup Convergence Information,THERMAL ZONE 4,SizingPeriod: CHICAGO OHARE INTL AP ANN HTG 99.6% CONDNS DB,3.9487802018E-002,0.1268393391,Pass,Pass,5.3084849029E-003,2.0891551542E-002,Pass,Pass
Environment,CHICAGO OHARE INTL AP ANN HTG WIND 99.6% CONDNS WS=>MCDB,SizingPeriod:DesignDay,01/21,01/21,WinterDesignDay,1,N/A,N/A,N/A,N/A,N/A,N/A
Environment:Daylight Saving,No,SizingPeriod:DesignDay
Environment:Design Day Data,-3.50,0.00,DefaultMultipliers,98934,270,12.4,0.00,No ,No 
Environment:Design_Day_Misc, 21,1229.0,0.1415,5.7310E-002,1.0,-11.15,-20.1,ASHRAEClearSky
Environment:WarmupDays,  6
 Warmup Convergence Information,THERMAL ZONE 11,SizingPeriod: CHICAGO OHARE INTL AP ANN HTG WIND 99.6% CONDNS WS=>MCDB,8.8119614074E-004,8.6069991361E-004,Pass,Pass,2.5201225456E-003,3.1544221787E-003,Pass,Pass
 Warmup Convergence Information,THERMAL ZONE 1,SizingPeriod: CHICAGO OHARE INTL AP ANN HTG WIND 99.6% CONDNS WS=>MCDB,3.1948152885E-003,3.1980091820E-003,Pass,Pass,1.1897455161E-002,6.3444366992E-002,Pass,Pass
 Warmup Convergence Information,THERMAL ZONE 15,SizingPeriod: CHICAGO OHARE INTL AP ANN HTG WIND 99.6% CONDNS WS=>MCDB,2.2988554253E-004,9.3402947581E-004,Pass,Pass,9.1929715849E-003,6.3985646931E-002,Pass,Pass
 Warmup Convergence Information,THERMAL ZONE 3,SizingPeriod: CHICAGO OHARE INTL AP ANN HTG WIND 99.6% CONDNS WS=>MCDB,2.5069849247E-003,3.4211876091E-003,Pass,Pass,7.8554013551E-003,4.3119609814E-002,Pass,Pass
 Warmup Convergence Information,THERMAL ZONE 9,SizingPeriod: CHICAGO OHARE INTL AP ANN HTG WIND 99.6% CONDNS WS=>MCDB,1.6056639100E-003,2.2849566663E-003,Pass,Pass,8.6732344085E-003,5.1521217834E-002,Pass,Pass
 Warmup Convergence Information,THERMAL ZONE 14,SizingPeriod: CHICAGO OHARE INTL AP ANN HTG WIND 99.6% CONDNS WS=>MCDB,8.7584699417E-004,1.7750492229E-003,Pass,Pass,8.0081639539E-003,5.1599035280E-002,Pass,Pass
 Warmup Convergence Information,THERMAL ZONE 8,SizingPeriod: CHICAGO OHARE INTL AP ANN HTG WIND 99.6% CONDNS WS=>MCDB,2.2035685702E-003,2.3530868440E-003,Pass,Pass,9.5162771035E-003,5.0787327376E-002,Pass,Pass
 Warmup Convergence Information,THERMAL ZONE 16,SizingPeriod: CHICAGO OHARE INTL AP ANN HTG WIND 99.6% CONDNS WS=>MCDB,3.1948152884E-003,3.1980091823E-003,Pass,Pass,1.1897455161E-002,6.3444366992E-002,Pass,Pass
 Warmup Convergence Information,THERMAL ZONE 13,SizingPeriod: CHICAGO OHARE INTL AP ANN HTG WIND 99.6% CONDNS WS=>MCDB,2.3343845299E-003,2.2001211146E-003,Pass,Pass,9.9877498322E-003,5.0891405857E-002,Pass,Pass
 Warmup Convergence Information,THERMAL ZONE 17,SizingPeriod: CHICAGO OHARE INTL AP ANN HTG WIND 99.6% CONDNS WS=>MCDB,5.5732598374E-003,1.2164002895E-003,Pass,Pass,1.2923109080E-002,5.0780152816E-002,Pass,Pass
 Warmup Convergence Information,THERMAL ZONE 2,SizingPeriod: CHICAGO OHARE INTL AP ANN HTG WIND 99.6% CONDNS WS=>MCDB,2.2883906773E-003,2.4129396019E-003,Pass,Pass,9.7576312829E-003,5.1995416954E-002,Pass,Pass
 Warmup Convergence Information,THERMAL ZONE 20,SizingPeriod: CHICAGO OHARE INTL AP ANN HTG WIND 99.6% CONDNS WS=>MCDB,3.0602384622E-003,3.4475794327E-003,Pass,Pass,8.2744711944E-003,4.3079436676E-002,Pass,Pass
 Warmup Convergence Information,THERMAL ZONE 19,SizingPeriod: CHICAGO OHARE INTL AP ANN HTG WIND 99.6% CONDNS WS=>MCDB,1.0862487548E-004,4.4043325933E-004,Pass,Pass,6.4113192165E-003,4.4172661105E-002,Pass,Pass
 Warmup Convergence Information,THERMAL ZONE 12,SizingPeriod: CHICAGO OHARE INTL AP ANN HTG WIND 99.6% CONDNS WS=>MCDB,2.4865083124E-004,5.1651899189E-004,Pass,Pass,6.3538306491E-004,1.7563776385E-003,Pass,Pass
 Warmup Convergence Information,THERMAL ZONE 6,SizingPeriod: CHICAGO OHARE INTL AP ANN HTG WIND 99.6% CONDNS WS=>MCDB,4.0616066877E-004,1.4327551920E-003,Pass,Pass,5.2385402062E-004,2.3314135042E-003,Pass,Pass
 Warmup Convergence Information,THERMAL ZONE 7,SizingPeriod: CHICAGO OHARE INTL AP ANN HTG WIND 99.6% CONDNS WS=>MCDB,8.7584699419E-004,1.7750492229E-003,Pass,Pass,8.0081639540E-003,5.1599035280E-002,Pass,Pass
 Warmup Convergence Information,THERMAL ZONE 10,SizingPeriod: CHICAGO OHARE INTL AP ANN HTG WIND 99.6% CONDNS WS=>MCDB,2.5069849247E-003,3.4211876091E-003,Pass,Pass,7.8554013551E-003,4.3119609814E-002,Pass,Pass
 Warmup Convergence Information,THERMAL ZONE 18,SizingPeriod: CHICAGO OHARE INTL AP ANN HTG WIND 99.6% CONDNS WS=>MCDB,3.0531615092E-003,3.1676762873E-003,Pass,Pass,1.1741895743E-002,6.3220212002E-002,Pass,Pass
 Warmup Convergence Information,THERMAL ZONE 5,SizingPeriod: CHICAGO OHARE INTL AP ANN HTG WIND 99.6% CONDNS WS=>MCDB,1.6884355149E-003,1.7036351088E-003,Pass,Pass,1.2309813702E-002,6.8850266704E-002,Pass,Pass
 Warmup Convergence Information,THERMAL ZONE 4,SizingPeriod: CHICAGO OHARE INTL AP ANN HTG WIND 99.6% CONDNS WS=>MCDB,2.3343845299E-003,2.2001211146E-003,Pass,Pass,9.9877498322E-003,5.0891405857E-002,Pass,Pass
Environment,RUN PERIOD 1,WeatherFileRunPeriod,01/01,12/31,Thursday,365,Use RunPeriod Specified Day,Yes,Yes,No ,Yes,Yes
Environment:Daylight Saving,Yes,InputFile,03/08,11/01
Environment:WarmupDays,  6
 Warmup Convergence Information,THERMAL ZONE 11,RunPeriod: RUN PERIOD 1,4.3553061798E-002,0.1082318695,Pass,Pass,0.4348764942,2.7827299258,Pass,Pass
 Warmup Convergence Information,THERMAL ZONE 1,RunPeriod: RUN PERIOD 1,2.6813265415E-003,2.0864129073E-003,Pass,Pass,3.9603401022E-002,0.1100613417,Pass,Pass
 Warmup Convergence Information,THERMAL ZONE 15,RunPeriod: RUN PERIOD 1,2.5807125552E-003,2.0159975670E-003,Pass,Pass,7.2921129093E-002,0.1509929218,Pass,Pass
 Warmup Convergence Information,THERMAL ZONE 3,RunPeriod: RUN PERIOD 1,2.2344690079E-003,2.0518942829E-003,Pass,Pass,4.0049945663E-002,9.9635711212E-002,Pass,Pass
 Warmup Convergence Information,THERMAL ZONE 9,RunPeriod: RUN PERIOD 1,1.9838539222E-003,1.7742834919E-003,Pass,Pass,0.1465670170,0.2988030423,Pass,Pass
 Warmup Convergence Information,THERMAL ZONE 14,RunPeriod: RUN PERIOD 1,1.9415777240E-003,1.7053434319E-003,Pass,Pass,0.1490125164,0.3825209741,Pass,Pass
 Warmup Convergence Information,THERMAL ZONE 8,RunPeriod: RUN PERIOD 1,2.2317663366E-003,2.3374129904E-003,Pass,Pass,0.1176164438,0.2286687962,Pass,Pass
 Warmup Convergence Information,THERMAL ZONE 16,RunPeriod: RUN PERIOD 1,2.4138679847E-003,1.8218593499E-003,Pass,Pass,0.4504366962,2.5716934055,Pass,Pass
 Warmup Convergence Information,THERMAL ZONE 13,RunPeriod: RUN PERIOD 1,2.0047436616E-003,1.6870590850E-003,Pass,Pass,0.1557176870,0.4426280963,Pass,Pass
 Warmup Convergence Information,THERMAL ZONE 17,RunPeriod: RUN PERIOD 1,2.2286327019E-003,2.2211114940E-003,Pass,Pass,0.1733464643,0.4402574935,Pass,Pass
 Warmup Convergence Information,THERMAL ZONE 2,RunPeriod: RUN PERIOD 1,2.3354223254E-003,1.9123296527E-003,Pass,Pass,0.1798850838,0.4604305406,Pass,Pass
 Warmup Convergence Information,THERMAL ZONE 20,RunPeriod: RUN PERIOD 1,2.5267636228E-003,2.1211909010E-003,Pass,Pass,4.9931915773E-002,0.1035418795,Pass,Pass
 Warmup Convergence Information,THERMAL ZONE 19,RunPeriod: RUN PERIOD 1,2.2563068629E-003,2.2032812930E-003,Pass,Pass,0.1990416857,0.5294536787,Pass,Pass
 Warmup Convergence Information,THERMAL ZONE 12,RunPeriod: RUN PERIOD 1,4.5332145674E-002,0.1094354020,Pass,Pass,0.2164123917,0.8780576246,Pass,Pass
 Warmup Convergence Information,THERMAL ZONE 6,RunPeriod: RUN PERIOD 1,3.0575768323E-002,8.7506393688E-002,Pass,Pass,5.1727981720E-002,0.1455668925,Pass,Pass
 Warmup Convergence Information,THERMAL ZONE 7,RunPeriod: RUN PERIOD 1,2.6083066694E-003,2.3192727724E-003,Pass,Pass,6.0076625533E-002,0.1462389392,Pass,Pass
 Warmup Convergence Information,THERMAL ZONE 10,RunPeriod: RUN PERIOD 1,2.1742174734E-003,1.9375479891E-003,Pass,Pass,0.3251986505,1.3534269486,Pass,Pass
 Warmup Convergence Information,THERMAL ZONE 18,RunPeriod: RUN PERIOD 1,3.1726503712E-003,2.1965588263E-003,Pass,Pass,4.6495539923E-002,0.1123796570,Pass,Pass
 Warmup Convergence Information,THERMAL ZONE 5,RunPeriod: RUN PERIOD 1,1.3124138539E-002,4.5163402543E-002,Pass,Pass,7.7357445768E-002,0.3257704832,Pass,Pass
 Warmup Convergence Information,THERMAL ZONE 4,RunPeriod: RUN PERIOD 1,2.1106242597E-003,1.8640723460E-003,Pass,Pass,5.9527076691E-002,0.1457427470,Pass,Pass
! <Program Control Information:Threads/Parallel Sims>, Threading Supported,Maximum Number of Threads, Env Set Threads (OMP_NUM_THREADS), EP Env Set Threads (EP_OMP_NUM_THREADS), IDF Set Threads, Number of Threads Used (Interior Radiant Exchange), Number Nominal Surfaces, Number Parallel Sims
Program Control:Threads/Parallel Sims, Yes,1, Not Set, Not Set, 1, 1, 136, N/A
End of Data
