Program Version,EnergyPlus-Linux-OMP-32 7.2.0.006, YMD=2013.06.18 23:36
! <Version>, Version ID
 Version, 7.2
! <Timesteps per Hour>, #TimeSteps, Minutes per TimeStep {minutes}
 Timesteps per Hour,  4, 15
! <System Convergence Limits>, Minimum System TimeStep {minutes}, Max HVAC Iterations,  Minimum Plant Iterations, Maximum Plant Iterations
 System Convergence Limits, 1, 20, 2, 8
! <Simulation Control>, Do Zone Sizing, Do System Sizing, Do Plant Sizing, Do Design Days, Do Weather Simulation
 Simulation Control, Yes, Yes, Yes, Yes, Yes
! <Output Reporting Tolerances>, Tolerance for Time Heating Setpoint Not Met, Tolerance for Time Cooling Setpoint Not Met
 Output Reporting Tolerances, 0.200, 0.200, 
! <Site:GroundTemperature:BuildingSurface>, Months From Jan to Dec {Deg C}
 Site:GroundTemperature:BuildingSurface,  18.00,  18.00,  18.00,  18.00,  18.00,  18.00,  18.00,  18.00,  18.00,  18.00,  18.00,  18.00
! <Site:GroundTemperature:FCfactorMethod>, Months From Jan to Dec {Deg C}
 Site:GroundTemperature:FCfactorMethod,  10.86,  10.57,  11.08,  11.88,  13.97,  15.58,  16.67,  17.00,  16.44,  15.19,  13.51,  11.96
! <Site:GroundTemperature:Shallow>, Months From Jan to Dec {Deg C}
 Site:GroundTemperature:Shallow,  13.00,  13.00,  13.00,  13.00,  13.00,  13.00,  13.00,  13.00,  13.00,  13.00,  13.00,  13.00
! <Site:GroundTemperature:Deep>, Months From Jan to Dec {Deg C}
 Site:GroundTemperature:Deep,  16.00,  16.00,  16.00,  16.00,  16.00,  16.00,  16.00,  16.00,  16.00,  16.00,  16.00,  16.00
! <Site:GroundReflectance>, Months From Jan to Dec {dimensionless}
 Site:GroundReflectance,  0.20,  0.20,  0.20,  0.20,  0.20,  0.20,  0.20,  0.20,  0.20,  0.20,  0.20,  0.20
! <Site:GroundReflectance:SnowModifier>, Normal, Daylighting {dimensionless}
 Site:GroundReflectance:SnowModifier,   1.000,   1.000
! <Site:GroundReflectance:Snow>, Months From Jan to Dec {dimensionless}
 Site:GroundReflectance:Snow,  0.20,  0.20,  0.20,  0.20,  0.20,  0.20,  0.20,  0.20,  0.20,  0.20,  0.20,  0.20
! <Site:GroundReflectance:Snow:Daylighting>, Months From Jan to Dec {dimensionless}
 Site:GroundReflectance:Snow:Daylighting,  0.20,  0.20,  0.20,  0.20,  0.20,  0.20,  0.20,  0.20,  0.20,  0.20,  0.20,  0.20
! <Environment:Weather Station>,Wind Sensor Height Above Ground {m},Wind Speed Profile Exponent {},Wind Speed Profile Boundary Layer Thickness {m},Air Temperature Sensor Height Above Ground {m},Wind Speed Modifier Coefficient [Internal],Temperature Modifier Coefficient [Internal]
Environment:Weather Station,10.000,0.140,270.000,1.500,1.586,9.750E-003
! <Site:Location>, Location Name, Latitude {N+/S- Deg}, Longitude {E+/W- Deg},  Time Zone Number {GMT+/-}, Elevation {m},  Standard Pressure at Elevation {Pa}, Standard RhoAir at Elevation
Site:Location,San Francisco Intl Ap CA USA TMY3 WMO#=724940,37.62,-122.40,-8.00,2.00,101301,1.2040
! <Building Information>, Building Name,North Axis {deg},Terrain,  Loads Convergence Tolerance Value,Temperature Convergence Tolerance Value,  Solar Distribution,Maximum Number of Warmup Days,Minimum Number of Warmup Days
 Building Information,Building 1,0.000,Suburbs,4.00000E-002,0.40000,FullExterior,25,6
! <Inside Convection Algorithm>, Algorithm {Simple | TARP | CeilingDiffuser | AdaptiveConvectionAlgorithm}
Inside Convection Algorithm,TARP
! <Outside Convection Algorithm>, Algorithm {SimpleCombined | TARP | MoWitt | DOE-2 | AdaptiveConvectionAlgorithm}
Outside Convection Algorithm,DOE-2
! <Sky Radiance Distribution>, Value {Anisotropic}
Sky Radiance Distribution,Anisotropic
! <Zone Air Solution Algorithm>, Value {ThirdOrderBackwardDifference | AnalyticalSolution | EulerMethod}
 Zone Air Solution Algorithm, ThirdOrderBackwardDifference
! <Zone Air Contaminant Balance Simulation>, Simulation {Yes/No}, Carbon Dioxide Concentration
 Zone Air Carbon Dioxide Balance Simulation, No,N/A
! <Zone Air Contaminant Balance Simulation>, Simulation {Yes/No}, Generic Contaminant Concentration
 Zone Air Generic Contaminant Balance Simulation, No,N/A
! <Environment:Site Atmospheric Variation>,Wind Speed Profile Exponent {},Wind Speed Profile Boundary Layer Thickness {m},Air Temperature Gradient Coefficient {K/m}
Environment:Site Atmospheric Variation,0.220,370.000,6.500000E-003
! <SurfaceGeometry>,Starting Corner,Vertex Input Direction,Coordinate System,Daylight Reference Point Coordinate System,Rectangular (Simple) Surface Coordinate System
 Surface Geometry,UpperLeftCorner,Counterclockwise,RelativeCoordinateSystem,RelativeCoordinateSystem,RelativeToZoneOrigin
! <Surface Heat Transfer Algorithm>, Value {CTF - ConductionTransferFunction | EMPD - MoisturePenetrationDepthConductionTransferFunction | CondFD - ConductionFiniteDifference | HAMT - CombinedHeatAndMoistureFiniteElement} - Description,Inside Surface Max Temperature Limit{C}, Surface Convection Coefficient Lower Limit {W/m2-K}, Surface Convection Coefficient Upper Limit {W/m2-K}
Surface Heat Transfer Algorithm, CTF - ConductionTransferFunction,200,0.10,1000.0
! <Shading Summary>, Number of Fixed Detached Shades, Number of Building Detached Shades, Number of Attached Shades
 Shading Summary,0,0,0
! <Zone Summary>, Number of Zones, Number of Zone Surfaces, Number of SubSurfaces
 Zone Summary,50,340,40
! <Zone Information>,Zone Name,North Axis {deg},Origin X-Coordinate {m},Origin Y-Coordinate {m},Origin Z-Coordinate {m},Centroid X-Coordinate {m},Centroid Y-Coordinate {m},Centroid Z-Coordinate {m},Type,Zone Multiplier,Zone List Multiplier,Minimum X {m},Maximum X {m},Minimum Y {m},Maximum Y {m},Minimum Z {m},Maximum Z {m},Ceiling Height {m},Volume {m3},Zone Inside Convection Algorithm {Simple-Detailed-CeilingDiffuser-TrombeWall},Zone Outside Convection Algorithm {Simple-Detailed-Tarp-MoWitt-DOE-2-BLAST}, Floor Area {m2},Exterior Gross Wall Area {m2},Exterior Net Wall Area {m2},Exterior Window Area {m2}, Number of Surfaces, Number of SubSurfaces, Number of Shading SubSurfaces,  Part of Total Building Area
 Zone Information, THERMAL ZONE 14,0.0,3.00,3.00,8.00,3.54,3.54,10.00,1,1,1,3.00,4.07,3.00,4.07,8.00,12.00,4.00,4.59,TARP,DOE-2,1.15,0.00,0.00,0.00,6,0,0,Yes
 Zone Information, THERMAL ZONE 6,0.0,3.00,3.00,16.00,3.54,3.54,18.00,1,1,1,3.00,4.07,3.00,4.07,16.00,20.00,4.00,4.59,TARP,DOE-2,1.15,0.00,0.00,0.00,6,0,0,Yes
 Zone Information, THERMAL ZONE 29,0.0,0.00,0.00,32.00,3.54,1.01,34.00,1,1,1,0.00,7.07,0.00,3.00,32.00,36.00,4.00,48.85,TARP,DOE-2,12.21,28.28,22.63,5.66,6,1,0,Yes
 Zone Information, THERMAL ZONE 35,0.0,3.00,4.07,24.00,3.54,6.07,26.00,1,1,1,0.00,7.07,4.07,7.07,24.00,28.00,4.00,48.85,TARP,DOE-2,12.21,28.28,22.63,5.66,6,1,0,Yes
 Zone Information, THERMAL ZONE 8,0.0,3.00,3.00,32.00,3.54,3.54,34.00,1,1,1,3.00,4.07,3.00,4.07,32.00,36.00,4.00,4.59,TARP,DOE-2,1.15,0.00,0.00,0.00,6,0,0,Yes
 Zone Information, THERMAL ZONE 9,0.0,4.07,3.00,16.00,6.07,3.54,18.00,1,1,1,4.07,7.07,0.00,7.07,16.00,20.00,4.00,48.85,TARP,DOE-2,12.21,28.28,22.63,5.66,6,1,0,Yes
 Zone Information, THERMAL ZONE 28,0.0,3.00,3.00,0.00,3.54,3.54,2.00,1,1,1,3.00,4.07,3.00,4.07,0.00,4.00,4.00,4.59,TARP,DOE-2,1.15,0.00,0.00,0.00,6,0,0,Yes
 Zone Information, THERMAL ZONE 7,0.0,3.00,3.00,12.00,3.54,3.54,14.00,1,1,1,3.00,4.07,3.00,4.07,12.00,16.00,4.00,4.59,TARP,DOE-2,1.15,0.00,0.00,0.00,6,0,0,Yes
 Zone Information, THERMAL ZONE 17,0.0,3.00,4.07,8.00,3.54,6.07,10.00,1,1,1,0.00,7.07,4.07,7.07,8.00,12.00,4.00,48.85,TARP,DOE-2,12.21,28.28,22.63,5.66,6,1,0,Yes
 Zone Information, THERMAL ZONE 1,0.0,0.00,0.00,36.00,1.01,3.54,38.00,1,1,1,0.00,3.00,0.00,7.07,36.00,40.00,4.00,48.85,TARP,DOE-2,12.21,28.28,22.63,5.66,6,1,0,Yes
 Zone Information, THERMAL ZONE 44,0.0,0.00,0.00,8.00,3.54,1.01,10.00,1,1,1,0.00,7.07,0.00,3.00,8.00,12.00,4.00,48.85,TARP,DOE-2,12.21,28.28,22.63,5.66,6,1,0,Yes
 Zone Information, THERMAL ZONE 45,0.0,4.07,3.00,28.00,6.07,3.54,30.00,1,1,1,4.07,7.07,0.00,7.07,28.00,32.00,4.00,48.85,TARP,DOE-2,12.21,28.28,22.63,5.66,6,1,0,Yes
 Zone Information, THERMAL ZONE 5,0.0,3.00,3.00,4.00,3.54,3.54,6.00,1,1,1,3.00,4.07,3.00,4.07,4.00,8.00,4.00,4.59,TARP,DOE-2,1.15,0.00,0.00,0.00,6,0,0,Yes
 Zone Information, THERMAL ZONE 32,0.0,3.00,3.00,20.00,3.54,3.54,22.00,1,1,1,3.00,4.07,3.00,4.07,20.00,24.00,4.00,4.59,TARP,DOE-2,1.15,0.00,0.00,0.00,6,0,0,Yes
 Zone Information, THERMAL ZONE 24,0.0,0.00,0.00,16.00,1.01,3.54,18.00,1,1,1,0.00,3.00,0.00,7.07,16.00,20.00,4.00,48.85,TARP,DOE-2,12.21,28.28,22.63,5.66,6,1,0,Yes
 Zone Information, THERMAL ZONE 11,0.0,3.00,4.07,0.00,3.54,6.07,2.00,1,1,1,0.00,7.07,4.07,7.07,0.00,4.00,4.00,48.85,TARP,DOE-2,12.21,28.28,22.63,5.66,6,1,0,Yes
 Zone Information, THERMAL ZONE 26,0.0,4.07,3.00,8.00,6.07,3.54,10.00,1,1,1,4.07,7.07,0.00,7.07,8.00,12.00,4.00,48.85,TARP,DOE-2,12.21,28.28,22.63,5.66,6,1,0,Yes
 Zone Information, THERMAL ZONE 27,0.0,3.00,4.07,36.00,3.54,6.07,38.00,1,1,1,0.00,7.07,4.07,7.07,36.00,40.00,4.00,48.85,TARP,DOE-2,12.21,28.28,22.63,5.66,6,1,0,Yes
 Zone Information, THERMAL ZONE 39,0.0,0.00,0.00,36.00,3.54,1.01,38.00,1,1,1,0.00,7.07,0.00,3.00,36.00,40.00,4.00,48.85,TARP,DOE-2,12.21,28.28,22.63,5.66,6,1,0,Yes
 Zone Information, THERMAL ZONE 10,0.0,3.00,3.00,36.00,3.54,3.54,38.00,1,1,1,3.00,4.07,3.00,4.07,36.00,40.00,4.00,4.59,TARP,DOE-2,1.15,0.00,0.00,0.00,6,0,0,Yes
 Zone Information, THERMAL ZONE 37,0.0,0.00,0.00,4.00,1.01,3.54,6.00,1,1,1,0.00,3.00,0.00,7.07,4.00,8.00,4.00,48.85,TARP,DOE-2,12.21,28.28,22.63,5.66,6,1,0,Yes
 Zone Information, THERMAL ZONE 2,0.0,3.00,4.07,16.00,3.54,6.07,18.00,1,1,1,0.00,7.07,4.07,7.07,16.00,20.00,4.00,48.85,TARP,DOE-2,12.21,28.28,22.63,5.66,6,1,0,Yes
 Zone Information, THERMAL ZONE 22,0.0,0.00,0.00,24.00,3.54,1.01,26.00,1,1,1,0.00,7.07,0.00,3.00,24.00,28.00,4.00,48.85,TARP,DOE-2,12.21,28.28,22.63,5.66,6,1,0,Yes
 Zone Information, THERMAL ZONE 41,0.0,0.00,0.00,28.00,1.01,3.54,30.00,1,1,1,0.00,3.00,0.00,7.07,28.00,32.00,4.00,48.85,TARP,DOE-2,12.21,28.28,22.63,5.66,6,1,0,Yes
 Zone Information, THERMAL ZONE 34,0.0,4.07,3.00,24.00,6.07,3.54,26.00,1,1,1,4.07,7.07,0.00,7.07,24.00,28.00,4.00,48.85,TARP,DOE-2,12.21,28.28,22.63,5.66,6,1,0,Yes
 Zone Information, THERMAL ZONE 49,0.0,0.00,0.00,12.00,3.54,1.01,14.00,1,1,1,0.00,7.07,0.00,3.00,12.00,16.00,4.00,48.85,TARP,DOE-2,12.21,28.28,22.63,5.66,6,1,0,Yes
 Zone Information, THERMAL ZONE 31,0.0,0.00,0.00,20.00,1.01,3.54,22.00,1,1,1,0.00,3.00,0.00,7.07,20.00,24.00,4.00,48.85,TARP,DOE-2,12.21,28.28,22.63,5.66,6,1,0,Yes
 Zone Information, THERMAL ZONE 42,0.0,0.00,0.00,0.00,3.54,1.01,2.00,1,1,1,0.00,7.07,0.00,3.00,0.00,4.00,4.00,48.85,TARP,DOE-2,12.21,28.28,22.63,5.66,6,1,0,Yes
 Zone Information, THERMAL ZONE 40,0.0,3.00,4.07,32.00,3.54,6.07,34.00,1,1,1,0.00,7.07,4.07,7.07,32.00,36.00,4.00,48.85,TARP,DOE-2,12.21,28.28,22.63,5.66,6,1,0,Yes
 Zone Information, THERMAL ZONE 47,0.0,3.00,3.00,24.00,3.54,3.54,26.00,1,1,1,3.00,4.07,3.00,4.07,24.00,28.00,4.00,4.59,TARP,DOE-2,1.15,0.00,0.00,0.00,6,0,0,Yes
 Zone Information, THERMAL ZONE 36,0.0,0.00,0.00,28.00,3.54,1.01,30.00,1,1,1,0.00,7.07,0.00,3.00,28.00,32.00,4.00,48.85,TARP,DOE-2,12.21,28.28,22.63,5.66,6,1,0,Yes
 Zone Information, THERMAL ZONE 19,0.0,4.07,3.00,12.00,6.07,3.54,14.00,1,1,1,4.07,7.07,0.00,7.07,12.00,16.00,4.00,48.85,TARP,DOE-2,12.21,28.28,22.63,5.66,6,1,0,Yes
 Zone Information, THERMAL ZONE 43,0.0,3.00,4.07,4.00,3.54,6.07,6.00,1,1,1,0.00,7.07,4.07,7.07,4.00,8.00,4.00,48.85,TARP,DOE-2,12.21,28.28,22.63,5.66,6,1,0,Yes
 Zone Information, THERMAL ZONE 12,0.0,3.00,4.07,12.00,3.54,6.07,14.00,1,1,1,0.00,7.07,4.07,7.07,12.00,16.00,4.00,48.85,TARP,DOE-2,12.21,28.28,22.63,5.66,6,1,0,Yes
 Zone Information, THERMAL ZONE 25,0.0,0.00,0.00,4.00,3.54,1.01,6.00,1,1,1,0.00,7.07,0.00,3.00,4.00,8.00,4.00,48.85,TARP,DOE-2,12.21,28.28,22.63,5.66,6,1,0,Yes
 Zone Information, THERMAL ZONE 33,0.0,0.00,0.00,24.00,1.01,3.54,26.00,1,1,1,0.00,3.00,0.00,7.07,24.00,28.00,4.00,48.85,TARP,DOE-2,12.21,28.28,22.63,5.66,6,1,0,Yes
 Zone Information, THERMAL ZONE 3,0.0,4.07,3.00,36.00,6.07,3.54,38.00,1,1,1,4.07,7.07,0.00,7.07,36.00,40.00,4.00,48.85,TARP,DOE-2,12.21,28.28,22.63,5.66,6,1,0,Yes
 Zone Information, THERMAL ZONE 21,0.0,4.07,3.00,4.00,6.07,3.54,6.00,1,1,1,4.07,7.07,0.00,7.07,4.00,8.00,4.00,48.85,TARP,DOE-2,12.21,28.28,22.63,5.66,6,1,0,Yes
 Zone Information, THERMAL ZONE 20,0.0,4.07,3.00,32.00,6.07,3.54,34.00,1,1,1,4.07,7.07,0.00,7.07,32.00,36.00,4.00,48.85,TARP,DOE-2,12.21,28.28,22.63,5.66,6,1,0,Yes
 Zone Information, THERMAL ZONE 15,0.0,0.00,0.00,8.00,1.01,3.54,10.00,1,1,1,0.00,3.00,0.00,7.07,8.00,12.00,4.00,48.85,TARP,DOE-2,12.21,28.28,22.63,5.66,6,1,0,Yes
 Zone Information, THERMAL ZONE 4,0.0,4.07,3.00,20.00,6.07,3.54,22.00,1,1,1,4.07,7.07,0.00,7.07,20.00,24.00,4.00,48.85,TARP,DOE-2,12.21,28.28,22.63,5.66,6,1,0,Yes
 Zone Information, THERMAL ZONE 30,0.0,3.00,4.07,28.00,3.54,6.07,30.00,1,1,1,0.00,7.07,4.07,7.07,28.00,32.00,4.00,48.85,TARP,DOE-2,12.21,28.28,22.63,5.66,6,1,0,Yes
 Zone Information, THERMAL ZONE 18,0.0,4.07,3.00,0.00,6.07,3.54,2.00,1,1,1,4.07,7.07,0.00,7.07,0.00,4.00,4.00,48.85,TARP,DOE-2,12.21,28.28,22.63,5.66,6,1,0,Yes
 Zone Information, THERMAL ZONE 46,0.0,0.00,0.00,32.00,1.01,3.54,34.00,1,1,1,0.00,3.00,0.00,7.07,32.00,36.00,4.00,48.85,TARP,DOE-2,12.21,28.28,22.63,5.66,6,1,0,Yes
 Zone Information, THERMAL ZONE 16,0.0,0.00,0.00,20.00,3.54,1.01,22.00,1,1,1,0.00,7.07,0.00,3.00,20.00,24.00,4.00,48.85,TARP,DOE-2,12.21,28.28,22.63,5.66,6,1,0,Yes
 Zone Information, THERMAL ZONE 38,0.0,3.00,4.07,20.00,3.54,6.07,22.00,1,1,1,0.00,7.07,4.07,7.07,20.00,24.00,4.00,48.85,TARP,DOE-2,12.21,28.28,22.63,5.66,6,1,0,Yes
 Zone Information, THERMAL ZONE 23,0.0,0.00,0.00,12.00,1.01,3.54,14.00,1,1,1,0.00,3.00,0.00,7.07,12.00,16.00,4.00,48.85,TARP,DOE-2,12.21,28.28,22.63,5.66,6,1,0,Yes
 Zone Information, THERMAL ZONE 13,0.0,3.00,3.00,28.00,3.54,3.54,30.00,1,1,1,3.00,4.07,3.00,4.07,28.00,32.00,4.00,4.59,TARP,DOE-2,1.15,0.00,0.00,0.00,6,0,0,Yes
 Zone Information, THERMAL ZONE 48,0.0,0.00,0.00,16.00,3.54,1.01,18.00,1,1,1,0.00,7.07,0.00,3.00,16.00,20.00,4.00,48.85,TARP,DOE-2,12.21,28.28,22.63,5.66,6,1,0,Yes
 Zone Information, THERMAL ZONE 50,0.0,0.00,0.00,0.00,1.01,3.54,2.00,1,1,1,0.00,3.00,0.00,7.07,0.00,4.00,4.00,48.85,TARP,DOE-2,12.21,28.28,22.63,5.66,6,1,0,Yes
! <Zone Internal Gains/Equipment Information - Nominal>,Zone Name, Floor Area {m2},# Occupants,Area per Occupant {m2/person},Occupant per Area {person/m2},Interior Lighting {W/m2},Electric Load {W/m2},Gas Load {W/m2},Other Load {W/m2},Hot Water Eq {W/m2},Steam Equipment {W/m2},Sum Loads per Area {W/m2},Outdoor Controlled Baseboard Heat
 Zone Internal Gains, THERMAL ZONE 14,1.15,6.2E-002,18.581,5.382E-002,10.764,10.764,0.000,0.000,0.000,0.000,21.528,No
 Zone Internal Gains, THERMAL ZONE 6,1.15,6.2E-002,18.581,5.382E-002,10.764,10.764,0.000,0.000,0.000,0.000,21.528,No
 Zone Internal Gains, THERMAL ZONE 29,12.21,0.7,18.581,5.382E-002,10.764,10.764,0.000,0.000,0.000,0.000,21.528,No
 Zone Internal Gains, THERMAL ZONE 35,12.21,0.7,18.581,5.382E-002,10.764,10.764,0.000,0.000,0.000,0.000,21.528,No
 Zone Internal Gains, THERMAL ZONE 8,1.15,6.2E-002,18.581,5.382E-002,10.764,10.764,0.000,0.000,0.000,0.000,21.528,No
 Zone Internal Gains, THERMAL ZONE 9,12.21,0.7,18.581,5.382E-002,10.764,10.764,0.000,0.000,0.000,0.000,21.528,No
 Zone Internal Gains, THERMAL ZONE 28,1.15,6.2E-002,18.581,5.382E-002,10.764,10.764,0.000,0.000,0.000,0.000,21.528,No
 Zone Internal Gains, THERMAL ZONE 7,1.15,6.2E-002,18.581,5.382E-002,10.764,10.764,0.000,0.000,0.000,0.000,21.528,No
 Zone Internal Gains, THERMAL ZONE 17,12.21,0.7,18.581,5.382E-002,10.764,10.764,0.000,0.000,0.000,0.000,21.528,No
 Zone Internal Gains, THERMAL ZONE 1,12.21,0.7,18.581,5.382E-002,10.764,10.764,0.000,0.000,0.000,0.000,21.528,No
 Zone Internal Gains, THERMAL ZONE 44,12.21,0.7,18.581,5.382E-002,10.764,10.764,0.000,0.000,0.000,0.000,21.528,No
 Zone Internal Gains, THERMAL ZONE 45,12.21,0.7,18.581,5.382E-002,10.764,10.764,0.000,0.000,0.000,0.000,21.528,No
 Zone Internal Gains, THERMAL ZONE 5,1.15,6.2E-002,18.581,5.382E-002,10.764,10.764,0.000,0.000,0.000,0.000,21.528,No
 Zone Internal Gains, THERMAL ZONE 32,1.15,6.2E-002,18.581,5.382E-002,10.764,10.764,0.000,0.000,0.000,0.000,21.528,No
 Zone Internal Gains, THERMAL ZONE 24,12.21,0.7,18.581,5.382E-002,10.764,10.764,0.000,0.000,0.000,0.000,21.528,No
 Zone Internal Gains, THERMAL ZONE 11,12.21,0.7,18.581,5.382E-002,10.764,10.764,0.000,0.000,0.000,0.000,21.528,No
 Zone Internal Gains, THERMAL ZONE 26,12.21,0.7,18.581,5.382E-002,10.764,10.764,0.000,0.000,0.000,0.000,21.528,No
 Zone Internal Gains, THERMAL ZONE 27,12.21,0.7,18.581,5.382E-002,10.764,10.764,0.000,0.000,0.000,0.000,21.528,No
 Zone Internal Gains, THERMAL ZONE 39,12.21,0.7,18.581,5.382E-002,10.764,10.764,0.000,0.000,0.000,0.000,21.528,No
 Zone Internal Gains, THERMAL ZONE 10,1.15,6.2E-002,18.581,5.382E-002,10.764,10.764,0.000,0.000,0.000,0.000,21.528,No
 Zone Internal Gains, THERMAL ZONE 37,12.21,0.7,18.581,5.382E-002,10.764,10.764,0.000,0.000,0.000,0.000,21.528,No
 Zone Internal Gains, THERMAL ZONE 2,12.21,0.7,18.581,5.382E-002,10.764,10.764,0.000,0.000,0.000,0.000,21.528,No
 Zone Internal Gains, THERMAL ZONE 22,12.21,0.7,18.581,5.382E-002,10.764,10.764,0.000,0.000,0.000,0.000,21.528,No
 Zone Internal Gains, THERMAL ZONE 41,12.21,0.7,18.581,5.382E-002,10.764,10.764,0.000,0.000,0.000,0.000,21.528,No
 Zone Internal Gains, THERMAL ZONE 34,12.21,0.7,18.581,5.382E-002,10.764,10.764,0.000,0.000,0.000,0.000,21.528,No
 Zone Internal Gains, THERMAL ZONE 49,12.21,0.7,18.581,5.382E-002,10.764,10.764,0.000,0.000,0.000,0.000,21.528,No
 Zone Internal Gains, THERMAL ZONE 31,12.21,0.7,18.581,5.382E-002,10.764,10.764,0.000,0.000,0.000,0.000,21.528,No
 Zone Internal Gains, THERMAL ZONE 42,12.21,0.7,18.581,5.382E-002,10.764,10.764,0.000,0.000,0.000,0.000,21.528,No
 Zone Internal Gains, THERMAL ZONE 40,12.21,0.7,18.581,5.382E-002,10.764,10.764,0.000,0.000,0.000,0.000,21.528,No
 Zone Internal Gains, THERMAL ZONE 47,1.15,6.2E-002,18.581,5.382E-002,10.764,10.764,0.000,0.000,0.000,0.000,21.528,No
 Zone Internal Gains, THERMAL ZONE 36,12.21,0.7,18.581,5.382E-002,10.764,10.764,0.000,0.000,0.000,0.000,21.528,No
 Zone Internal Gains, THERMAL ZONE 19,12.21,0.7,18.581,5.382E-002,10.764,10.764,0.000,0.000,0.000,0.000,21.528,No
 Zone Internal Gains, THERMAL ZONE 43,12.21,0.7,18.581,5.382E-002,10.764,10.764,0.000,0.000,0.000,0.000,21.528,No
 Zone Internal Gains, THERMAL ZONE 12,12.21,0.7,18.581,5.382E-002,10.764,10.764,0.000,0.000,0.000,0.000,21.528,No
 Zone Internal Gains, THERMAL ZONE 25,12.21,0.7,18.581,5.382E-002,10.764,10.764,0.000,0.000,0.000,0.000,21.528,No
 Zone Internal Gains, THERMAL ZONE 33,12.21,0.7,18.581,5.382E-002,10.764,10.764,0.000,0.000,0.000,0.000,21.528,No
 Zone Internal Gains, THERMAL ZONE 3,12.21,0.7,18.581,5.382E-002,10.764,10.764,0.000,0.000,0.000,0.000,21.528,No
 Zone Internal Gains, THERMAL ZONE 21,12.21,0.7,18.581,5.382E-002,10.764,10.764,0.000,0.000,0.000,0.000,21.528,No
 Zone Internal Gains, THERMAL ZONE 20,12.21,0.7,18.581,5.382E-002,10.764,10.764,0.000,0.000,0.000,0.000,21.528,No
 Zone Internal Gains, THERMAL ZONE 15,12.21,0.7,18.581,5.382E-002,10.764,10.764,0.000,0.000,0.000,0.000,21.528,No
 Zone Internal Gains, THERMAL ZONE 4,12.21,0.7,18.581,5.382E-002,10.764,10.764,0.000,0.000,0.000,0.000,21.528,No
 Zone Internal Gains, THERMAL ZONE 30,12.21,0.7,18.581,5.382E-002,10.764,10.764,0.000,0.000,0.000,0.000,21.528,No
 Zone Internal Gains, THERMAL ZONE 18,12.21,0.7,18.581,5.382E-002,10.764,10.764,0.000,0.000,0.000,0.000,21.528,No
 Zone Internal Gains, THERMAL ZONE 46,12.21,0.7,18.581,5.382E-002,10.764,10.764,0.000,0.000,0.000,0.000,21.528,No
 Zone Internal Gains, THERMAL ZONE 16,12.21,0.7,18.581,5.382E-002,10.764,10.764,0.000,0.000,0.000,0.000,21.528,No
 Zone Internal Gains, THERMAL ZONE 38,12.21,0.7,18.581,5.382E-002,10.764,10.764,0.000,0.000,0.000,0.000,21.528,No
 Zone Internal Gains, THERMAL ZONE 23,12.21,0.7,18.581,5.382E-002,10.764,10.764,0.000,0.000,0.000,0.000,21.528,No
 Zone Internal Gains, THERMAL ZONE 13,1.15,6.2E-002,18.581,5.382E-002,10.764,10.764,0.000,0.000,0.000,0.000,21.528,No
 Zone Internal Gains, THERMAL ZONE 48,12.21,0.7,18.581,5.382E-002,10.764,10.764,0.000,0.000,0.000,0.000,21.528,No
 Zone Internal Gains, THERMAL ZONE 50,12.21,0.7,18.581,5.382E-002,10.764,10.764,0.000,0.000,0.000,0.000,21.528,No
! <People Internal Gains - Nominal>,Name,Schedule Name,Zone Name,Zone Floor Area {m2},# Zone Occupants,Number of People {},People/Floor Area {person/m2},Floor Area per person {m2/person},Fraction Radiant,Fraction Convected,Sensible Fraction Calculation,Activity level,ASHRAE 55 Warnings,Carbon Dioxide Generation Rate 
 People Internal Gains, THERMAL ZONE 1 ASHRAE_90.1-2004 CLIMATEZONE 1-8 SMALLOFFICE WHOLEBUILDING PEOPLE,SMALL OFFICE_BLDG_OCC,THERMAL ZONE 1,12.21,0.7,0.7,5.382E-002,18.581,0.300,0.700,AutoCalculate,SMALL OFFICE_ACTIVITY,No,3.8200E-008
 People Internal Gains, THERMAL ZONE 10 ASHRAE_90.1-2004 CLIMATEZONE 1-8 SMALLOFFICE WHOLEBUILDING PEOPLE,SMALL OFFICE_BLDG_OCC,THERMAL ZONE 10,1.15,6.2E-002,6.2E-002,5.382E-002,18.581,0.300,0.700,AutoCalculate,SMALL OFFICE_ACTIVITY,No,3.8200E-008
 People Internal Gains, THERMAL ZONE 11 ASHRAE_90.1-2004 CLIMATEZONE 1-8 SMALLOFFICE WHOLEBUILDING PEOPLE,SMALL OFFICE_BLDG_OCC,THERMAL ZONE 11,12.21,0.7,0.7,5.382E-002,18.581,0.300,0.700,AutoCalculate,SMALL OFFICE_ACTIVITY,No,3.8200E-008
 People Internal Gains, THERMAL ZONE 12 ASHRAE_90.1-2004 CLIMATEZONE 1-8 SMALLOFFICE WHOLEBUILDING PEOPLE,SMALL OFFICE_BLDG_OCC,THERMAL ZONE 12,12.21,0.7,0.7,5.382E-002,18.581,0.300,0.700,AutoCalculate,SMALL OFFICE_ACTIVITY,No,3.8200E-008
 People Internal Gains, THERMAL ZONE 13 ASHRAE_90.1-2004 CLIMATEZONE 1-8 SMALLOFFICE WHOLEBUILDING PEOPLE,SMALL OFFICE_BLDG_OCC,THERMAL ZONE 13,1.15,6.2E-002,6.2E-002,5.382E-002,18.581,0.300,0.700,AutoCalculate,SMALL OFFICE_ACTIVITY,No,3.8200E-008
 People Internal Gains, THERMAL ZONE 14 ASHRAE_90.1-2004 CLIMATEZONE 1-8 SMALLOFFICE WHOLEBUILDING PEOPLE,SMALL OFFICE_BLDG_OCC,THERMAL ZONE 14,1.15,6.2E-002,6.2E-002,5.382E-002,18.581,0.300,0.700,AutoCalculate,SMALL OFFICE_ACTIVITY,No,3.8200E-008
 People Internal Gains, THERMAL ZONE 15 ASHRAE_90.1-2004 CLIMATEZONE 1-8 SMALLOFFICE WHOLEBUILDING PEOPLE,SMALL OFFICE_BLDG_OCC,THERMAL ZONE 15,12.21,0.7,0.7,5.382E-002,18.581,0.300,0.700,AutoCalculate,SMALL OFFICE_ACTIVITY,No,3.8200E-008
 People Internal Gains, THERMAL ZONE 16 ASHRAE_90.1-2004 CLIMATEZONE 1-8 SMALLOFFICE WHOLEBUILDING PEOPLE,SMALL OFFICE_BLDG_OCC,THERMAL ZONE 16,12.21,0.7,0.7,5.382E-002,18.581,0.300,0.700,AutoCalculate,SMALL OFFICE_ACTIVITY,No,3.8200E-008
 People Internal Gains, THERMAL ZONE 17 ASHRAE_90.1-2004 CLIMATEZONE 1-8 SMALLOFFICE WHOLEBUILDING PEOPLE,SMALL OFFICE_BLDG_OCC,THERMAL ZONE 17,12.21,0.7,0.7,5.382E-002,18.581,0.300,0.700,AutoCalculate,SMALL OFFICE_ACTIVITY,No,3.8200E-008
 People Internal Gains, THERMAL ZONE 18 ASHRAE_90.1-2004 CLIMATEZONE 1-8 SMALLOFFICE WHOLEBUILDING PEOPLE,SMALL OFFICE_BLDG_OCC,THERMAL ZONE 18,12.21,0.7,0.7,5.382E-002,18.581,0.300,0.700,AutoCalculate,SMALL OFFICE_ACTIVITY,No,3.8200E-008
 People Internal Gains, THERMAL ZONE 19 ASHRAE_90.1-2004 CLIMATEZONE 1-8 SMALLOFFICE WHOLEBUILDING PEOPLE,SMALL OFFICE_BLDG_OCC,THERMAL ZONE 19,12.21,0.7,0.7,5.382E-002,18.581,0.300,0.700,AutoCalculate,SMALL OFFICE_ACTIVITY,No,3.8200E-008
 People Internal Gains, THERMAL ZONE 2 ASHRAE_90.1-2004 CLIMATEZONE 1-8 SMALLOFFICE WHOLEBUILDING PEOPLE,SMALL OFFICE_BLDG_OCC,THERMAL ZONE 2,12.21,0.7,0.7,5.382E-002,18.581,0.300,0.700,AutoCalculate,SMALL OFFICE_ACTIVITY,No,3.8200E-008
 People Internal Gains, THERMAL ZONE 20 ASHRAE_90.1-2004 CLIMATEZONE 1-8 SMALLOFFICE WHOLEBUILDING PEOPLE,SMALL OFFICE_BLDG_OCC,THERMAL ZONE 20,12.21,0.7,0.7,5.382E-002,18.581,0.300,0.700,AutoCalculate,SMALL OFFICE_ACTIVITY,No,3.8200E-008
 People Internal Gains, THERMAL ZONE 21 ASHRAE_90.1-2004 CLIMATEZONE 1-8 SMALLOFFICE WHOLEBUILDING PEOPLE,SMALL OFFICE_BLDG_OCC,THERMAL ZONE 21,12.21,0.7,0.7,5.382E-002,18.581,0.300,0.700,AutoCalculate,SMALL OFFICE_ACTIVITY,No,3.8200E-008
 People Internal Gains, THERMAL ZONE 22 ASHRAE_90.1-2004 CLIMATEZONE 1-8 SMALLOFFICE WHOLEBUILDING PEOPLE,SMALL OFFICE_BLDG_OCC,THERMAL ZONE 22,12.21,0.7,0.7,5.382E-002,18.581,0.300,0.700,AutoCalculate,SMALL OFFICE_ACTIVITY,No,3.8200E-008
 People Internal Gains, THERMAL ZONE 23 ASHRAE_90.1-2004 CLIMATEZONE 1-8 SMALLOFFICE WHOLEBUILDING PEOPLE,SMALL OFFICE_BLDG_OCC,THERMAL ZONE 23,12.21,0.7,0.7,5.382E-002,18.581,0.300,0.700,AutoCalculate,SMALL OFFICE_ACTIVITY,No,3.8200E-008
 People Internal Gains, THERMAL ZONE 24 ASHRAE_90.1-2004 CLIMATEZONE 1-8 SMALLOFFICE WHOLEBUILDING PEOPLE,SMALL OFFICE_BLDG_OCC,THERMAL ZONE 24,12.21,0.7,0.7,5.382E-002,18.581,0.300,0.700,AutoCalculate,SMALL OFFICE_ACTIVITY,No,3.8200E-008
 People Internal Gains, THERMAL ZONE 25 ASHRAE_90.1-2004 CLIMATEZONE 1-8 SMALLOFFICE WHOLEBUILDING PEOPLE,SMALL OFFICE_BLDG_OCC,THERMAL ZONE 25,12.21,0.7,0.7,5.382E-002,18.581,0.300,0.700,AutoCalculate,SMALL OFFICE_ACTIVITY,No,3.8200E-008
 People Internal Gains, THERMAL ZONE 26 ASHRAE_90.1-2004 CLIMATEZONE 1-8 SMALLOFFICE WHOLEBUILDING PEOPLE,SMALL OFFICE_BLDG_OCC,THERMAL ZONE 26,12.21,0.7,0.7,5.382E-002,18.581,0.300,0.700,AutoCalculate,SMALL OFFICE_ACTIVITY,No,3.8200E-008
 People Internal Gains, THERMAL ZONE 27 ASHRAE_90.1-2004 CLIMATEZONE 1-8 SMALLOFFICE WHOLEBUILDING PEOPLE,SMALL OFFICE_BLDG_OCC,THERMAL ZONE 27,12.21,0.7,0.7,5.382E-002,18.581,0.300,0.700,AutoCalculate,SMALL OFFICE_ACTIVITY,No,3.8200E-008
 People Internal Gains, THERMAL ZONE 28 ASHRAE_90.1-2004 CLIMATEZONE 1-8 SMALLOFFICE WHOLEBUILDING PEOPLE,SMALL OFFICE_BLDG_OCC,THERMAL ZONE 28,1.15,6.2E-002,6.2E-002,5.382E-002,18.581,0.300,0.700,AutoCalculate,SMALL OFFICE_ACTIVITY,No,3.8200E-008
 People Internal Gains, THERMAL ZONE 29 ASHRAE_90.1-2004 CLIMATEZONE 1-8 SMALLOFFICE WHOLEBUILDING PEOPLE,SMALL OFFICE_BLDG_OCC,THERMAL ZONE 29,12.21,0.7,0.7,5.382E-002,18.581,0.300,0.700,AutoCalculate,SMALL OFFICE_ACTIVITY,No,3.8200E-008
 People Internal Gains, THERMAL ZONE 3 ASHRAE_90.1-2004 CLIMATEZONE 1-8 SMALLOFFICE WHOLEBUILDING PEOPLE,SMALL OFFICE_BLDG_OCC,THERMAL ZONE 3,12.21,0.7,0.7,5.382E-002,18.581,0.300,0.700,AutoCalculate,SMALL OFFICE_ACTIVITY,No,3.8200E-008
 People Internal Gains, THERMAL ZONE 30 ASHRAE_90.1-2004 CLIMATEZONE 1-8 SMALLOFFICE WHOLEBUILDING PEOPLE,SMALL OFFICE_BLDG_OCC,THERMAL ZONE 30,12.21,0.7,0.7,5.382E-002,18.581,0.300,0.700,AutoCalculate,SMALL OFFICE_ACTIVITY,No,3.8200E-008
 People Internal Gains, THERMAL ZONE 31 ASHRAE_90.1-2004 CLIMATEZONE 1-8 SMALLOFFICE WHOLEBUILDING PEOPLE,SMALL OFFICE_BLDG_OCC,THERMAL ZONE 31,12.21,0.7,0.7,5.382E-002,18.581,0.300,0.700,AutoCalculate,SMALL OFFICE_ACTIVITY,No,3.8200E-008
 People Internal Gains, THERMAL ZONE 32 ASHRAE_90.1-2004 CLIMATEZONE 1-8 SMALLOFFICE WHOLEBUILDING PEOPLE,SMALL OFFICE_BLDG_OCC,THERMAL ZONE 32,1.15,6.2E-002,6.2E-002,5.382E-002,18.581,0.300,0.700,AutoCalculate,SMALL OFFICE_ACTIVITY,No,3.8200E-008
 People Internal Gains, THERMAL ZONE 33 ASHRAE_90.1-2004 CLIMATEZONE 1-8 SMALLOFFICE WHOLEBUILDING PEOPLE,SMALL OFFICE_BLDG_OCC,THERMAL ZONE 33,12.21,0.7,0.7,5.382E-002,18.581,0.300,0.700,AutoCalculate,SMALL OFFICE_ACTIVITY,No,3.8200E-008
 People Internal Gains, THERMAL ZONE 34 ASHRAE_90.1-2004 CLIMATEZONE 1-8 SMALLOFFICE WHOLEBUILDING PEOPLE,SMALL OFFICE_BLDG_OCC,THERMAL ZONE 34,12.21,0.7,0.7,5.382E-002,18.581,0.300,0.700,AutoCalculate,SMALL OFFICE_ACTIVITY,No,3.8200E-008
 People Internal Gains, THERMAL ZONE 35 ASHRAE_90.1-2004 CLIMATEZONE 1-8 SMALLOFFICE WHOLEBUILDING PEOPLE,SMALL OFFICE_BLDG_OCC,THERMAL ZONE 35,12.21,0.7,0.7,5.382E-002,18.581,0.300,0.700,AutoCalculate,SMALL OFFICE_ACTIVITY,No,3.8200E-008
 People Internal Gains, THERMAL ZONE 36 ASHRAE_90.1-2004 CLIMATEZONE 1-8 SMALLOFFICE WHOLEBUILDING PEOPLE,SMALL OFFICE_BLDG_OCC,THERMAL ZONE 36,12.21,0.7,0.7,5.382E-002,18.581,0.300,0.700,AutoCalculate,SMALL OFFICE_ACTIVITY,No,3.8200E-008
 People Internal Gains, THERMAL ZONE 37 ASHRAE_90.1-2004 CLIMATEZONE 1-8 SMALLOFFICE WHOLEBUILDING PEOPLE,SMALL OFFICE_BLDG_OCC,THERMAL ZONE 37,12.21,0.7,0.7,5.382E-002,18.581,0.300,0.700,AutoCalculate,SMALL OFFICE_ACTIVITY,No,3.8200E-008
 People Internal Gains, THERMAL ZONE 38 ASHRAE_90.1-2004 CLIMATEZONE 1-8 SMALLOFFICE WHOLEBUILDING PEOPLE,SMALL OFFICE_BLDG_OCC,THERMAL ZONE 38,12.21,0.7,0.7,5.382E-002,18.581,0.300,0.700,AutoCalculate,SMALL OFFICE_ACTIVITY,No,3.8200E-008
 People Internal Gains, THERMAL ZONE 39 ASHRAE_90.1-2004 CLIMATEZONE 1-8 SMALLOFFICE WHOLEBUILDING PEOPLE,SMALL OFFICE_BLDG_OCC,THERMAL ZONE 39,12.21,0.7,0.7,5.382E-002,18.581,0.300,0.700,AutoCalculate,SMALL OFFICE_ACTIVITY,No,3.8200E-008
 People Internal Gains, THERMAL ZONE 4 ASHRAE_90.1-2004 CLIMATEZONE 1-8 SMALLOFFICE WHOLEBUILDING PEOPLE,SMALL OFFICE_BLDG_OCC,THERMAL ZONE 4,12.21,0.7,0.7,5.382E-002,18.581,0.300,0.700,AutoCalculate,SMALL OFFICE_ACTIVITY,No,3.8200E-008
 People Internal Gains, THERMAL ZONE 40 ASHRAE_90.1-2004 CLIMATEZONE 1-8 SMALLOFFICE WHOLEBUILDING PEOPLE,SMALL OFFICE_BLDG_OCC,THERMAL ZONE 40,12.21,0.7,0.7,5.382E-002,18.581,0.300,0.700,AutoCalculate,SMALL OFFICE_ACTIVITY,No,3.8200E-008
 People Internal Gains, THERMAL ZONE 41 ASHRAE_90.1-2004 CLIMATEZONE 1-8 SMALLOFFICE WHOLEBUILDING PEOPLE,SMALL OFFICE_BLDG_OCC,THERMAL ZONE 41,12.21,0.7,0.7,5.382E-002,18.581,0.300,0.700,AutoCalculate,SMALL OFFICE_ACTIVITY,No,3.8200E-008
 People Internal Gains, THERMAL ZONE 42 ASHRAE_90.1-2004 CLIMATEZONE 1-8 SMALLOFFICE WHOLEBUILDING PEOPLE,SMALL OFFICE_BLDG_OCC,THERMAL ZONE 42,12.21,0.7,0.7,5.382E-002,18.581,0.300,0.700,AutoCalculate,SMALL OFFICE_ACTIVITY,No,3.8200E-008
 People Internal Gains, THERMAL ZONE 43 ASHRAE_90.1-2004 CLIMATEZONE 1-8 SMALLOFFICE WHOLEBUILDING PEOPLE,SMALL OFFICE_BLDG_OCC,THERMAL ZONE 43,12.21,0.7,0.7,5.382E-002,18.581,0.300,0.700,AutoCalculate,SMALL OFFICE_ACTIVITY,No,3.8200E-008
 People Internal Gains, THERMAL ZONE 44 ASHRAE_90.1-2004 CLIMATEZONE 1-8 SMALLOFFICE WHOLEBUILDING PEOPLE,SMALL OFFICE_BLDG_OCC,THERMAL ZONE 44,12.21,0.7,0.7,5.382E-002,18.581,0.300,0.700,AutoCalculate,SMALL OFFICE_ACTIVITY,No,3.8200E-008
 People Internal Gains, THERMAL ZONE 45 ASHRAE_90.1-2004 CLIMATEZONE 1-8 SMALLOFFICE WHOLEBUILDING PEOPLE,SMALL OFFICE_BLDG_OCC,THERMAL ZONE 45,12.21,0.7,0.7,5.382E-002,18.581,0.300,0.700,AutoCalculate,SMALL OFFICE_ACTIVITY,No,3.8200E-008
 People Internal Gains, THERMAL ZONE 46 ASHRAE_90.1-2004 CLIMATEZONE 1-8 SMALLOFFICE WHOLEBUILDING PEOPLE,SMALL OFFICE_BLDG_OCC,THERMAL ZONE 46,12.21,0.7,0.7,5.382E-002,18.581,0.300,0.700,AutoCalculate,SMALL OFFICE_ACTIVITY,No,3.8200E-008
 People Internal Gains, THERMAL ZONE 47 ASHRAE_90.1-2004 CLIMATEZONE 1-8 SMALLOFFICE WHOLEBUILDING PEOPLE,SMALL OFFICE_BLDG_OCC,THERMAL ZONE 47,1.15,6.2E-002,6.2E-002,5.382E-002,18.581,0.300,0.700,AutoCalculate,SMALL OFFICE_ACTIVITY,No,3.8200E-008
 People Internal Gains, THERMAL ZONE 48 ASHRAE_90.1-2004 CLIMATEZONE 1-8 SMALLOFFICE WHOLEBUILDING PEOPLE,SMALL OFFICE_BLDG_OCC,THERMAL ZONE 48,12.21,0.7,0.7,5.382E-002,18.581,0.300,0.700,AutoCalculate,SMALL OFFICE_ACTIVITY,No,3.8200E-008
 People Internal Gains, THERMAL ZONE 49 ASHRAE_90.1-2004 CLIMATEZONE 1-8 SMALLOFFICE WHOLEBUILDING PEOPLE,SMALL OFFICE_BLDG_OCC,THERMAL ZONE 49,12.21,0.7,0.7,5.382E-002,18.581,0.300,0.700,AutoCalculate,SMALL OFFICE_ACTIVITY,No,3.8200E-008
 People Internal Gains, THERMAL ZONE 5 ASHRAE_90.1-2004 CLIMATEZONE 1-8 SMALLOFFICE WHOLEBUILDING PEOPLE,SMALL OFFICE_BLDG_OCC,THERMAL ZONE 5,1.15,6.2E-002,6.2E-002,5.382E-002,18.581,0.300,0.700,AutoCalculate,SMALL OFFICE_ACTIVITY,No,3.8200E-008
 People Internal Gains, THERMAL ZONE 50 ASHRAE_90.1-2004 CLIMATEZONE 1-8 SMALLOFFICE WHOLEBUILDING PEOPLE,SMALL OFFICE_BLDG_OCC,THERMAL ZONE 50,12.21,0.7,0.7,5.382E-002,18.581,0.300,0.700,AutoCalculate,SMALL OFFICE_ACTIVITY,No,3.8200E-008
 People Internal Gains, THERMAL ZONE 6 ASHRAE_90.1-2004 CLIMATEZONE 1-8 SMALLOFFICE WHOLEBUILDING PEOPLE,SMALL OFFICE_BLDG_OCC,THERMAL ZONE 6,1.15,6.2E-002,6.2E-002,5.382E-002,18.581,0.300,0.700,AutoCalculate,SMALL OFFICE_ACTIVITY,No,3.8200E-008
 People Internal Gains, THERMAL ZONE 7 ASHRAE_90.1-2004 CLIMATEZONE 1-8 SMALLOFFICE WHOLEBUILDING PEOPLE,SMALL OFFICE_BLDG_OCC,THERMAL ZONE 7,1.15,6.2E-002,6.2E-002,5.382E-002,18.581,0.300,0.700,AutoCalculate,SMALL OFFICE_ACTIVITY,No,3.8200E-008
 People Internal Gains, THERMAL ZONE 8 ASHRAE_90.1-2004 CLIMATEZONE 1-8 SMALLOFFICE WHOLEBUILDING PEOPLE,SMALL OFFICE_BLDG_OCC,THERMAL ZONE 8,1.15,6.2E-002,6.2E-002,5.382E-002,18.581,0.300,0.700,AutoCalculate,SMALL OFFICE_ACTIVITY,No,3.8200E-008
 People Internal Gains, THERMAL ZONE 9 ASHRAE_90.1-2004 CLIMATEZONE 1-8 SMALLOFFICE WHOLEBUILDING PEOPLE,SMALL OFFICE_BLDG_OCC,THERMAL ZONE 9,12.21,0.7,0.7,5.382E-002,18.581,0.300,0.700,AutoCalculate,SMALL OFFICE_ACTIVITY,No,3.8200E-008
! <Lights Internal Gains - Nominal>,Name,Schedule Name,Zone Name,Zone Floor Area {m2},# Zone Occupants,Lighting Level {W},Lights/Floor Area {W/m2},Lights per person {W/person},Fraction Return Air,Fraction Radiant,Fraction Short Wave,Fraction Convected,Fraction Replaceable,EndUse Category
 Lights Internal Gains, THERMAL ZONE 1 ASHRAE_90.1-2004 CLIMATEZONE 1-8 SMALLOFFICE WHOLEBUILDING LIGHTS,SMALL OFFICE_BLDG_LIGHT,THERMAL ZONE 1,12.21,0.7,131.462,10.764,200.000,0.000,0.000,0.000,1.000,1.000,General
 Lights Internal Gains, THERMAL ZONE 10 ASHRAE_90.1-2004 CLIMATEZONE 1-8 SMALLOFFICE WHOLEBUILDING LIGHTS,SMALL OFFICE_BLDG_LIGHT,THERMAL ZONE 10,1.15,6.2E-002,12.348,10.764,200.000,0.000,0.000,0.000,1.000,1.000,General
 Lights Internal Gains, THERMAL ZONE 11 ASHRAE_90.1-2004 CLIMATEZONE 1-8 SMALLOFFICE WHOLEBUILDING LIGHTS,SMALL OFFICE_BLDG_LIGHT,THERMAL ZONE 11,12.21,0.7,131.462,10.764,200.000,0.000,0.000,0.000,1.000,1.000,General
 Lights Internal Gains, THERMAL ZONE 12 ASHRAE_90.1-2004 CLIMATEZONE 1-8 SMALLOFFICE WHOLEBUILDING LIGHTS,SMALL OFFICE_BLDG_LIGHT,THERMAL ZONE 12,12.21,0.7,131.462,10.764,200.000,0.000,0.000,0.000,1.000,1.000,General
 Lights Internal Gains, THERMAL ZONE 13 ASHRAE_90.1-2004 CLIMATEZONE 1-8 SMALLOFFICE WHOLEBUILDING LIGHTS,SMALL OFFICE_BLDG_LIGHT,THERMAL ZONE 13,1.15,6.2E-002,12.348,10.764,200.000,0.000,0.000,0.000,1.000,1.000,General
 Lights Internal Gains, THERMAL ZONE 14 ASHRAE_90.1-2004 CLIMATEZONE 1-8 SMALLOFFICE WHOLEBUILDING LIGHTS,SMALL OFFICE_BLDG_LIGHT,THERMAL ZONE 14,1.15,6.2E-002,12.348,10.764,200.000,0.000,0.000,0.000,1.000,1.000,General
 Lights Internal Gains, THERMAL ZONE 15 ASHRAE_90.1-2004 CLIMATEZONE 1-8 SMALLOFFICE WHOLEBUILDING LIGHTS,SMALL OFFICE_BLDG_LIGHT,THERMAL ZONE 15,12.21,0.7,131.462,10.764,200.000,0.000,0.000,0.000,1.000,1.000,General
 Lights Internal Gains, THERMAL ZONE 16 ASHRAE_90.1-2004 CLIMATEZONE 1-8 SMALLOFFICE WHOLEBUILDING LIGHTS,SMALL OFFICE_BLDG_LIGHT,THERMAL ZONE 16,12.21,0.7,131.462,10.764,200.000,0.000,0.000,0.000,1.000,1.000,General
 Lights Internal Gains, THERMAL ZONE 17 ASHRAE_90.1-2004 CLIMATEZONE 1-8 SMALLOFFICE WHOLEBUILDING LIGHTS,SMALL OFFICE_BLDG_LIGHT,THERMAL ZONE 17,12.21,0.7,131.462,10.764,200.000,0.000,0.000,0.000,1.000,1.000,General
 Lights Internal Gains, THERMAL ZONE 18 ASHRAE_90.1-2004 CLIMATEZONE 1-8 SMALLOFFICE WHOLEBUILDING LIGHTS,SMALL OFFICE_BLDG_LIGHT,THERMAL ZONE 18,12.21,0.7,131.462,10.764,200.000,0.000,0.000,0.000,1.000,1.000,General
 Lights Internal Gains, THERMAL ZONE 19 ASHRAE_90.1-2004 CLIMATEZONE 1-8 SMALLOFFICE WHOLEBUILDING LIGHTS,SMALL OFFICE_BLDG_LIGHT,THERMAL ZONE 19,12.21,0.7,131.462,10.764,200.000,0.000,0.000,0.000,1.000,1.000,General
 Lights Internal Gains, THERMAL ZONE 2 ASHRAE_90.1-2004 CLIMATEZONE 1-8 SMALLOFFICE WHOLEBUILDING LIGHTS,SMALL OFFICE_BLDG_LIGHT,THERMAL ZONE 2,12.21,0.7,131.462,10.764,200.000,0.000,0.000,0.000,1.000,1.000,General
 Lights Internal Gains, THERMAL ZONE 20 ASHRAE_90.1-2004 CLIMATEZONE 1-8 SMALLOFFICE WHOLEBUILDING LIGHTS,SMALL OFFICE_BLDG_LIGHT,THERMAL ZONE 20,12.21,0.7,131.462,10.764,200.000,0.000,0.000,0.000,1.000,1.000,General
 Lights Internal Gains, THERMAL ZONE 21 ASHRAE_90.1-2004 CLIMATEZONE 1-8 SMALLOFFICE WHOLEBUILDING LIGHTS,SMALL OFFICE_BLDG_LIGHT,THERMAL ZONE 21,12.21,0.7,131.462,10.764,200.000,0.000,0.000,0.000,1.000,1.000,General
 Lights Internal Gains, THERMAL ZONE 22 ASHRAE_90.1-2004 CLIMATEZONE 1-8 SMALLOFFICE WHOLEBUILDING LIGHTS,SMALL OFFICE_BLDG_LIGHT,THERMAL ZONE 22,12.21,0.7,131.462,10.764,200.000,0.000,0.000,0.000,1.000,1.000,General
 Lights Internal Gains, THERMAL ZONE 23 ASHRAE_90.1-2004 CLIMATEZONE 1-8 SMALLOFFICE WHOLEBUILDING LIGHTS,SMALL OFFICE_BLDG_LIGHT,THERMAL ZONE 23,12.21,0.7,131.462,10.764,200.000,0.000,0.000,0.000,1.000,1.000,General
 Lights Internal Gains, THERMAL ZONE 24 ASHRAE_90.1-2004 CLIMATEZONE 1-8 SMALLOFFICE WHOLEBUILDING LIGHTS,SMALL OFFICE_BLDG_LIGHT,THERMAL ZONE 24,12.21,0.7,131.462,10.764,200.000,0.000,0.000,0.000,1.000,1.000,General
 Lights Internal Gains, THERMAL ZONE 25 ASHRAE_90.1-2004 CLIMATEZONE 1-8 SMALLOFFICE WHOLEBUILDING LIGHTS,SMALL OFFICE_BLDG_LIGHT,THERMAL ZONE 25,12.21,0.7,131.462,10.764,200.000,0.000,0.000,0.000,1.000,1.000,General
 Lights Internal Gains, THERMAL ZONE 26 ASHRAE_90.1-2004 CLIMATEZONE 1-8 SMALLOFFICE WHOLEBUILDING LIGHTS,SMALL OFFICE_BLDG_LIGHT,THERMAL ZONE 26,12.21,0.7,131.462,10.764,200.000,0.000,0.000,0.000,1.000,1.000,General
 Lights Internal Gains, THERMAL ZONE 27 ASHRAE_90.1-2004 CLIMATEZONE 1-8 SMALLOFFICE WHOLEBUILDING LIGHTS,SMALL OFFICE_BLDG_LIGHT,THERMAL ZONE 27,12.21,0.7,131.462,10.764,200.000,0.000,0.000,0.000,1.000,1.000,General
 Lights Internal Gains, THERMAL ZONE 28 ASHRAE_90.1-2004 CLIMATEZONE 1-8 SMALLOFFICE WHOLEBUILDING LIGHTS,SMALL OFFICE_BLDG_LIGHT,THERMAL ZONE 28,1.15,6.2E-002,12.348,10.764,200.000,0.000,0.000,0.000,1.000,1.000,General
 Lights Internal Gains, THERMAL ZONE 29 ASHRAE_90.1-2004 CLIMATEZONE 1-8 SMALLOFFICE WHOLEBUILDING LIGHTS,SMALL OFFICE_BLDG_LIGHT,THERMAL ZONE 29,12.21,0.7,131.462,10.764,200.000,0.000,0.000,0.000,1.000,1.000,General
 Lights Internal Gains, THERMAL ZONE 3 ASHRAE_90.1-2004 CLIMATEZONE 1-8 SMALLOFFICE WHOLEBUILDING LIGHTS,SMALL OFFICE_BLDG_LIGHT,THERMAL ZONE 3,12.21,0.7,131.462,10.764,200.000,0.000,0.000,0.000,1.000,1.000,General
 Lights Internal Gains, THERMAL ZONE 30 ASHRAE_90.1-2004 CLIMATEZONE 1-8 SMALLOFFICE WHOLEBUILDING LIGHTS,SMALL OFFICE_BLDG_LIGHT,THERMAL ZONE 30,12.21,0.7,131.462,10.764,200.000,0.000,0.000,0.000,1.000,1.000,General
 Lights Internal Gains, THERMAL ZONE 31 ASHRAE_90.1-2004 CLIMATEZONE 1-8 SMALLOFFICE WHOLEBUILDING LIGHTS,SMALL OFFICE_BLDG_LIGHT,THERMAL ZONE 31,12.21,0.7,131.462,10.764,200.000,0.000,0.000,0.000,1.000,1.000,General
 Lights Internal Gains, THERMAL ZONE 32 ASHRAE_90.1-2004 CLIMATEZONE 1-8 SMALLOFFICE WHOLEBUILDING LIGHTS,SMALL OFFICE_BLDG_LIGHT,THERMAL ZONE 32,1.15,6.2E-002,12.348,10.764,200.000,0.000,0.000,0.000,1.000,1.000,General
 Lights Internal Gains, THERMAL ZONE 33 ASHRAE_90.1-2004 CLIMATEZONE 1-8 SMALLOFFICE WHOLEBUILDING LIGHTS,SMALL OFFICE_BLDG_LIGHT,THERMAL ZONE 33,12.21,0.7,131.462,10.764,200.000,0.000,0.000,0.000,1.000,1.000,General
 Lights Internal Gains, THERMAL ZONE 34 ASHRAE_90.1-2004 CLIMATEZONE 1-8 SMALLOFFICE WHOLEBUILDING LIGHTS,SMALL OFFICE_BLDG_LIGHT,THERMAL ZONE 34,12.21,0.7,131.462,10.764,200.000,0.000,0.000,0.000,1.000,1.000,General
 Lights Internal Gains, THERMAL ZONE 35 ASHRAE_90.1-2004 CLIMATEZONE 1-8 SMALLOFFICE WHOLEBUILDING LIGHTS,SMALL OFFICE_BLDG_LIGHT,THERMAL ZONE 35,12.21,0.7,131.462,10.764,200.000,0.000,0.000,0.000,1.000,1.000,General
 Lights Internal Gains, THERMAL ZONE 36 ASHRAE_90.1-2004 CLIMATEZONE 1-8 SMALLOFFICE WHOLEBUILDING LIGHTS,SMALL OFFICE_BLDG_LIGHT,THERMAL ZONE 36,12.21,0.7,131.462,10.764,200.000,0.000,0.000,0.000,1.000,1.000,General
 Lights Internal Gains, THERMAL ZONE 37 ASHRAE_90.1-2004 CLIMATEZONE 1-8 SMALLOFFICE WHOLEBUILDING LIGHTS,SMALL OFFICE_BLDG_LIGHT,THERMAL ZONE 37,12.21,0.7,131.462,10.764,200.000,0.000,0.000,0.000,1.000,1.000,General
 Lights Internal Gains, THERMAL ZONE 38 ASHRAE_90.1-2004 CLIMATEZONE 1-8 SMALLOFFICE WHOLEBUILDING LIGHTS,SMALL OFFICE_BLDG_LIGHT,THERMAL ZONE 38,12.21,0.7,131.462,10.764,200.000,0.000,0.000,0.000,1.000,1.000,General
 Lights Internal Gains, THERMAL ZONE 39 ASHRAE_90.1-2004 CLIMATEZONE 1-8 SMALLOFFICE WHOLEBUILDING LIGHTS,SMALL OFFICE_BLDG_LIGHT,THERMAL ZONE 39,12.21,0.7,131.462,10.764,200.000,0.000,0.000,0.000,1.000,1.000,General
 Lights Internal Gains, THERMAL ZONE 4 ASHRAE_90.1-2004 CLIMATEZONE 1-8 SMALLOFFICE WHOLEBUILDING LIGHTS,SMALL OFFICE_BLDG_LIGHT,THERMAL ZONE 4,12.21,0.7,131.462,10.764,200.000,0.000,0.000,0.000,1.000,1.000,General
 Lights Internal Gains, THERMAL ZONE 40 ASHRAE_90.1-2004 CLIMATEZONE 1-8 SMALLOFFICE WHOLEBUILDING LIGHTS,SMALL OFFICE_BLDG_LIGHT,THERMAL ZONE 40,12.21,0.7,131.462,10.764,200.000,0.000,0.000,0.000,1.000,1.000,General
 Lights Internal Gains, THERMAL ZONE 41 ASHRAE_90.1-2004 CLIMATEZONE 1-8 SMALLOFFICE WHOLEBUILDING LIGHTS,SMALL OFFICE_BLDG_LIGHT,THERMAL ZONE 41,12.21,0.7,131.462,10.764,200.000,0.000,0.000,0.000,1.000,1.000,General
 Lights Internal Gains, THERMAL ZONE 42 ASHRAE_90.1-2004 CLIMATEZONE 1-8 SMALLOFFICE WHOLEBUILDING LIGHTS,SMALL OFFICE_BLDG_LIGHT,THERMAL ZONE 42,12.21,0.7,131.462,10.764,200.000,0.000,0.000,0.000,1.000,1.000,General
 Lights Internal Gains, THERMAL ZONE 43 ASHRAE_90.1-2004 CLIMATEZONE 1-8 SMALLOFFICE WHOLEBUILDING LIGHTS,SMALL OFFICE_BLDG_LIGHT,THERMAL ZONE 43,12.21,0.7,131.462,10.764,200.000,0.000,0.000,0.000,1.000,1.000,General
 Lights Internal Gains, THERMAL ZONE 44 ASHRAE_90.1-2004 CLIMATEZONE 1-8 SMALLOFFICE WHOLEBUILDING LIGHTS,SMALL OFFICE_BLDG_LIGHT,THERMAL ZONE 44,12.21,0.7,131.462,10.764,200.000,0.000,0.000,0.000,1.000,1.000,General
 Lights Internal Gains, THERMAL ZONE 45 ASHRAE_90.1-2004 CLIMATEZONE 1-8 SMALLOFFICE WHOLEBUILDING LIGHTS,SMALL OFFICE_BLDG_LIGHT,THERMAL ZONE 45,12.21,0.7,131.462,10.764,200.000,0.000,0.000,0.000,1.000,1.000,General
 Lights Internal Gains, THERMAL ZONE 46 ASHRAE_90.1-2004 CLIMATEZONE 1-8 SMALLOFFICE WHOLEBUILDING LIGHTS,SMALL OFFICE_BLDG_LIGHT,THERMAL ZONE 46,12.21,0.7,131.462,10.764,200.000,0.000,0.000,0.000,1.000,1.000,General
 Lights Internal Gains, THERMAL ZONE 47 ASHRAE_90.1-2004 CLIMATEZONE 1-8 SMALLOFFICE WHOLEBUILDING LIGHTS,SMALL OFFICE_BLDG_LIGHT,THERMAL ZONE 47,1.15,6.2E-002,12.348,10.764,200.000,0.000,0.000,0.000,1.000,1.000,General
 Lights Internal Gains, THERMAL ZONE 48 ASHRAE_90.1-2004 CLIMATEZONE 1-8 SMALLOFFICE WHOLEBUILDING LIGHTS,SMALL OFFICE_BLDG_LIGHT,THERMAL ZONE 48,12.21,0.7,131.462,10.764,200.000,0.000,0.000,0.000,1.000,1.000,General
 Lights Internal Gains, THERMAL ZONE 49 ASHRAE_90.1-2004 CLIMATEZONE 1-8 SMALLOFFICE WHOLEBUILDING LIGHTS,SMALL OFFICE_BLDG_LIGHT,THERMAL ZONE 49,12.21,0.7,131.462,10.764,200.000,0.000,0.000,0.000,1.000,1.000,General
 Lights Internal Gains, THERMAL ZONE 5 ASHRAE_90.1-2004 CLIMATEZONE 1-8 SMALLOFFICE WHOLEBUILDING LIGHTS,SMALL OFFICE_BLDG_LIGHT,THERMAL ZONE 5,1.15,6.2E-002,12.348,10.764,200.000,0.000,0.000,0.000,1.000,1.000,General
 Lights Internal Gains, THERMAL ZONE 50 ASHRAE_90.1-2004 CLIMATEZONE 1-8 SMALLOFFICE WHOLEBUILDING LIGHTS,SMALL OFFICE_BLDG_LIGHT,THERMAL ZONE 50,12.21,0.7,131.462,10.764,200.000,0.000,0.000,0.000,1.000,1.000,General
 Lights Internal Gains, THERMAL ZONE 6 ASHRAE_90.1-2004 CLIMATEZONE 1-8 SMALLOFFICE WHOLEBUILDING LIGHTS,SMALL OFFICE_BLDG_LIGHT,THERMAL ZONE 6,1.15,6.2E-002,12.348,10.764,200.000,0.000,0.000,0.000,1.000,1.000,General
 Lights Internal Gains, THERMAL ZONE 7 ASHRAE_90.1-2004 CLIMATEZONE 1-8 SMALLOFFICE WHOLEBUILDING LIGHTS,SMALL OFFICE_BLDG_LIGHT,THERMAL ZONE 7,1.15,6.2E-002,12.348,10.764,200.000,0.000,0.000,0.000,1.000,1.000,General
 Lights Internal Gains, THERMAL ZONE 8 ASHRAE_90.1-2004 CLIMATEZONE 1-8 SMALLOFFICE WHOLEBUILDING LIGHTS,SMALL OFFICE_BLDG_LIGHT,THERMAL ZONE 8,1.15,6.2E-002,12.348,10.764,200.000,0.000,0.000,0.000,1.000,1.000,General
 Lights Internal Gains, THERMAL ZONE 9 ASHRAE_90.1-2004 CLIMATEZONE 1-8 SMALLOFFICE WHOLEBUILDING LIGHTS,SMALL OFFICE_BLDG_LIGHT,THERMAL ZONE 9,12.21,0.7,131.462,10.764,200.000,0.000,0.000,0.000,1.000,1.000,General
! <ElectricEquipment Internal Gains - Nominal>,Name,Schedule Name,Zone Name,Zone Floor Area {m2},# Zone Occupants,Equipment Level {W},Equipment/Floor Area {W/m2},Equipment per person {W/person},Fraction Latent,Fraction Radiant,Fraction Lost,Fraction Convected,EndUse SubCategory
 ElectricEquipment Internal Gains, THERMAL ZONE 1 ASHRAE_90.1-2004 CLIMATEZONE 1-8 SMALLOFFICE WHOLEBUILDING ELECTRIC EQUIPMENT,SMALL OFFICE_BLDG_EQUIP,THERMAL ZONE 1,12.21,0.7,131.462,10.764,200.000,0.000,0.000,0.000,1.000,General
 ElectricEquipment Internal Gains, THERMAL ZONE 10 ASHRAE_90.1-2004 CLIMATEZONE 1-8 SMALLOFFICE WHOLEBUILDING ELECTRIC EQUIPMENT,SMALL OFFICE_BLDG_EQUIP,THERMAL ZONE 10,1.15,6.2E-002,12.348,10.764,200.000,0.000,0.000,0.000,1.000,General
 ElectricEquipment Internal Gains, THERMAL ZONE 11 ASHRAE_90.1-2004 CLIMATEZONE 1-8 SMALLOFFICE WHOLEBUILDING ELECTRIC EQUIPMENT,SMALL OFFICE_BLDG_EQUIP,THERMAL ZONE 11,12.21,0.7,131.462,10.764,200.000,0.000,0.000,0.000,1.000,General
 ElectricEquipment Internal Gains, THERMAL ZONE 12 ASHRAE_90.1-2004 CLIMATEZONE 1-8 SMALLOFFICE WHOLEBUILDING ELECTRIC EQUIPMENT,SMALL OFFICE_BLDG_EQUIP,THERMAL ZONE 12,12.21,0.7,131.462,10.764,200.000,0.000,0.000,0.000,1.000,General
 ElectricEquipment Internal Gains, THERMAL ZONE 13 ASHRAE_90.1-2004 CLIMATEZONE 1-8 SMALLOFFICE WHOLEBUILDING ELECTRIC EQUIPMENT,SMALL OFFICE_BLDG_EQUIP,THERMAL ZONE 13,1.15,6.2E-002,12.348,10.764,200.000,0.000,0.000,0.000,1.000,General
 ElectricEquipment Internal Gains, THERMAL ZONE 14 ASHRAE_90.1-2004 CLIMATEZONE 1-8 SMALLOFFICE WHOLEBUILDING ELECTRIC EQUIPMENT,SMALL OFFICE_BLDG_EQUIP,THERMAL ZONE 14,1.15,6.2E-002,12.348,10.764,200.000,0.000,0.000,0.000,1.000,General
 ElectricEquipment Internal Gains, THERMAL ZONE 15 ASHRAE_90.1-2004 CLIMATEZONE 1-8 SMALLOFFICE WHOLEBUILDING ELECTRIC EQUIPMENT,SMALL OFFICE_BLDG_EQUIP,THERMAL ZONE 15,12.21,0.7,131.462,10.764,200.000,0.000,0.000,0.000,1.000,General
 ElectricEquipment Internal Gains, THERMAL ZONE 16 ASHRAE_90.1-2004 CLIMATEZONE 1-8 SMALLOFFICE WHOLEBUILDING ELECTRIC EQUIPMENT,SMALL OFFICE_BLDG_EQUIP,THERMAL ZONE 16,12.21,0.7,131.462,10.764,200.000,0.000,0.000,0.000,1.000,General
 ElectricEquipment Internal Gains, THERMAL ZONE 17 ASHRAE_90.1-2004 CLIMATEZONE 1-8 SMALLOFFICE WHOLEBUILDING ELECTRIC EQUIPMENT,SMALL OFFICE_BLDG_EQUIP,THERMAL ZONE 17,12.21,0.7,131.462,10.764,200.000,0.000,0.000,0.000,1.000,General
 ElectricEquipment Internal Gains, THERMAL ZONE 18 ASHRAE_90.1-2004 CLIMATEZONE 1-8 SMALLOFFICE WHOLEBUILDING ELECTRIC EQUIPMENT,SMALL OFFICE_BLDG_EQUIP,THERMAL ZONE 18,12.21,0.7,131.462,10.764,200.000,0.000,0.000,0.000,1.000,General
 ElectricEquipment Internal Gains, THERMAL ZONE 19 ASHRAE_90.1-2004 CLIMATEZONE 1-8 SMALLOFFICE WHOLEBUILDING ELECTRIC EQUIPMENT,SMALL OFFICE_BLDG_EQUIP,THERMAL ZONE 19,12.21,0.7,131.462,10.764,200.000,0.000,0.000,0.000,1.000,General
 ElectricEquipment Internal Gains, THERMAL ZONE 2 ASHRAE_90.1-2004 CLIMATEZONE 1-8 SMALLOFFICE WHOLEBUILDING ELECTRIC EQUIPMENT,SMALL OFFICE_BLDG_EQUIP,THERMAL ZONE 2,12.21,0.7,131.462,10.764,200.000,0.000,0.000,0.000,1.000,General
 ElectricEquipment Internal Gains, THERMAL ZONE 20 ASHRAE_90.1-2004 CLIMATEZONE 1-8 SMALLOFFICE WHOLEBUILDING ELECTRIC EQUIPMENT,SMALL OFFICE_BLDG_EQUIP,THERMAL ZONE 20,12.21,0.7,131.462,10.764,200.000,0.000,0.000,0.000,1.000,General
 ElectricEquipment Internal Gains, THERMAL ZONE 21 ASHRAE_90.1-2004 CLIMATEZONE 1-8 SMALLOFFICE WHOLEBUILDING ELECTRIC EQUIPMENT,SMALL OFFICE_BLDG_EQUIP,THERMAL ZONE 21,12.21,0.7,131.462,10.764,200.000,0.000,0.000,0.000,1.000,General
 ElectricEquipment Internal Gains, THERMAL ZONE 22 ASHRAE_90.1-2004 CLIMATEZONE 1-8 SMALLOFFICE WHOLEBUILDING ELECTRIC EQUIPMENT,SMALL OFFICE_BLDG_EQUIP,THERMAL ZONE 22,12.21,0.7,131.462,10.764,200.000,0.000,0.000,0.000,1.000,General
 ElectricEquipment Internal Gains, THERMAL ZONE 23 ASHRAE_90.1-2004 CLIMATEZONE 1-8 SMALLOFFICE WHOLEBUILDING ELECTRIC EQUIPMENT,SMALL OFFICE_BLDG_EQUIP,THERMAL ZONE 23,12.21,0.7,131.462,10.764,200.000,0.000,0.000,0.000,1.000,General
 ElectricEquipment Internal Gains, THERMAL ZONE 24 ASHRAE_90.1-2004 CLIMATEZONE 1-8 SMALLOFFICE WHOLEBUILDING ELECTRIC EQUIPMENT,SMALL OFFICE_BLDG_EQUIP,THERMAL ZONE 24,12.21,0.7,131.462,10.764,200.000,0.000,0.000,0.000,1.000,General
 ElectricEquipment Internal Gains, THERMAL ZONE 25 ASHRAE_90.1-2004 CLIMATEZONE 1-8 SMALLOFFICE WHOLEBUILDING ELECTRIC EQUIPMENT,SMALL OFFICE_BLDG_EQUIP,THERMAL ZONE 25,12.21,0.7,131.462,10.764,200.000,0.000,0.000,0.000,1.000,General
 ElectricEquipment Internal Gains, THERMAL ZONE 26 ASHRAE_90.1-2004 CLIMATEZONE 1-8 SMALLOFFICE WHOLEBUILDING ELECTRIC EQUIPMENT,SMALL OFFICE_BLDG_EQUIP,THERMAL ZONE 26,12.21,0.7,131.462,10.764,200.000,0.000,0.000,0.000,1.000,General
 ElectricEquipment Internal Gains, THERMAL ZONE 27 ASHRAE_90.1-2004 CLIMATEZONE 1-8 SMALLOFFICE WHOLEBUILDING ELECTRIC EQUIPMENT,SMALL OFFICE_BLDG_EQUIP,THERMAL ZONE 27,12.21,0.7,131.462,10.764,200.000,0.000,0.000,0.000,1.000,General
 ElectricEquipment Internal Gains, THERMAL ZONE 28 ASHRAE_90.1-2004 CLIMATEZONE 1-8 SMALLOFFICE WHOLEBUILDING ELECTRIC EQUIPMENT,SMALL OFFICE_BLDG_EQUIP,THERMAL ZONE 28,1.15,6.2E-002,12.348,10.764,200.000,0.000,0.000,0.000,1.000,General
 ElectricEquipment Internal Gains, THERMAL ZONE 29 ASHRAE_90.1-2004 CLIMATEZONE 1-8 SMALLOFFICE WHOLEBUILDING ELECTRIC EQUIPMENT,SMALL OFFICE_BLDG_EQUIP,THERMAL ZONE 29,12.21,0.7,131.462,10.764,200.000,0.000,0.000,0.000,1.000,General
 ElectricEquipment Internal Gains, THERMAL ZONE 3 ASHRAE_90.1-2004 CLIMATEZONE 1-8 SMALLOFFICE WHOLEBUILDING ELECTRIC EQUIPMENT,SMALL OFFICE_BLDG_EQUIP,THERMAL ZONE 3,12.21,0.7,131.462,10.764,200.000,0.000,0.000,0.000,1.000,General
 ElectricEquipment Internal Gains, THERMAL ZONE 30 ASHRAE_90.1-2004 CLIMATEZONE 1-8 SMALLOFFICE WHOLEBUILDING ELECTRIC EQUIPMENT,SMALL OFFICE_BLDG_EQUIP,THERMAL ZONE 30,12.21,0.7,131.462,10.764,200.000,0.000,0.000,0.000,1.000,General
 ElectricEquipment Internal Gains, THERMAL ZONE 31 ASHRAE_90.1-2004 CLIMATEZONE 1-8 SMALLOFFICE WHOLEBUILDING ELECTRIC EQUIPMENT,SMALL OFFICE_BLDG_EQUIP,THERMAL ZONE 31,12.21,0.7,131.462,10.764,200.000,0.000,0.000,0.000,1.000,General
 ElectricEquipment Internal Gains, THERMAL ZONE 32 ASHRAE_90.1-2004 CLIMATEZONE 1-8 SMALLOFFICE WHOLEBUILDING ELECTRIC EQUIPMENT,SMALL OFFICE_BLDG_EQUIP,THERMAL ZONE 32,1.15,6.2E-002,12.348,10.764,200.000,0.000,0.000,0.000,1.000,General
 ElectricEquipment Internal Gains, THERMAL ZONE 33 ASHRAE_90.1-2004 CLIMATEZONE 1-8 SMALLOFFICE WHOLEBUILDING ELECTRIC EQUIPMENT,SMALL OFFICE_BLDG_EQUIP,THERMAL ZONE 33,12.21,0.7,131.462,10.764,200.000,0.000,0.000,0.000,1.000,General
 ElectricEquipment Internal Gains, THERMAL ZONE 34 ASHRAE_90.1-2004 CLIMATEZONE 1-8 SMALLOFFICE WHOLEBUILDING ELECTRIC EQUIPMENT,SMALL OFFICE_BLDG_EQUIP,THERMAL ZONE 34,12.21,0.7,131.462,10.764,200.000,0.000,0.000,0.000,1.000,General
 ElectricEquipment Internal Gains, THERMAL ZONE 35 ASHRAE_90.1-2004 CLIMATEZONE 1-8 SMALLOFFICE WHOLEBUILDING ELECTRIC EQUIPMENT,SMALL OFFICE_BLDG_EQUIP,THERMAL ZONE 35,12.21,0.7,131.462,10.764,200.000,0.000,0.000,0.000,1.000,General
 ElectricEquipment Internal Gains, THERMAL ZONE 36 ASHRAE_90.1-2004 CLIMATEZONE 1-8 SMALLOFFICE WHOLEBUILDING ELECTRIC EQUIPMENT,SMALL OFFICE_BLDG_EQUIP,THERMAL ZONE 36,12.21,0.7,131.462,10.764,200.000,0.000,0.000,0.000,1.000,General
 ElectricEquipment Internal Gains, THERMAL ZONE 37 ASHRAE_90.1-2004 CLIMATEZONE 1-8 SMALLOFFICE WHOLEBUILDING ELECTRIC EQUIPMENT,SMALL OFFICE_BLDG_EQUIP,THERMAL ZONE 37,12.21,0.7,131.462,10.764,200.000,0.000,0.000,0.000,1.000,General
 ElectricEquipment Internal Gains, THERMAL ZONE 38 ASHRAE_90.1-2004 CLIMATEZONE 1-8 SMALLOFFICE WHOLEBUILDING ELECTRIC EQUIPMENT,SMALL OFFICE_BLDG_EQUIP,THERMAL ZONE 38,12.21,0.7,131.462,10.764,200.000,0.000,0.000,0.000,1.000,General
 ElectricEquipment Internal Gains, THERMAL ZONE 39 ASHRAE_90.1-2004 CLIMATEZONE 1-8 SMALLOFFICE WHOLEBUILDING ELECTRIC EQUIPMENT,SMALL OFFICE_BLDG_EQUIP,THERMAL ZONE 39,12.21,0.7,131.462,10.764,200.000,0.000,0.000,0.000,1.000,General
 ElectricEquipment Internal Gains, THERMAL ZONE 4 ASHRAE_90.1-2004 CLIMATEZONE 1-8 SMALLOFFICE WHOLEBUILDING ELECTRIC EQUIPMENT,SMALL OFFICE_BLDG_EQUIP,THERMAL ZONE 4,12.21,0.7,131.462,10.764,200.000,0.000,0.000,0.000,1.000,General
 ElectricEquipment Internal Gains, THERMAL ZONE 40 ASHRAE_90.1-2004 CLIMATEZONE 1-8 SMALLOFFICE WHOLEBUILDING ELECTRIC EQUIPMENT,SMALL OFFICE_BLDG_EQUIP,THERMAL ZONE 40,12.21,0.7,131.462,10.764,200.000,0.000,0.000,0.000,1.000,General
 ElectricEquipment Internal Gains, THERMAL ZONE 41 ASHRAE_90.1-2004 CLIMATEZONE 1-8 SMALLOFFICE WHOLEBUILDING ELECTRIC EQUIPMENT,SMALL OFFICE_BLDG_EQUIP,THERMAL ZONE 41,12.21,0.7,131.462,10.764,200.000,0.000,0.000,0.000,1.000,General
 ElectricEquipment Internal Gains, THERMAL ZONE 42 ASHRAE_90.1-2004 CLIMATEZONE 1-8 SMALLOFFICE WHOLEBUILDING ELECTRIC EQUIPMENT,SMALL OFFICE_BLDG_EQUIP,THERMAL ZONE 42,12.21,0.7,131.462,10.764,200.000,0.000,0.000,0.000,1.000,General
 ElectricEquipment Internal Gains, THERMAL ZONE 43 ASHRAE_90.1-2004 CLIMATEZONE 1-8 SMALLOFFICE WHOLEBUILDING ELECTRIC EQUIPMENT,SMALL OFFICE_BLDG_EQUIP,THERMAL ZONE 43,12.21,0.7,131.462,10.764,200.000,0.000,0.000,0.000,1.000,General
 ElectricEquipment Internal Gains, THERMAL ZONE 44 ASHRAE_90.1-2004 CLIMATEZONE 1-8 SMALLOFFICE WHOLEBUILDING ELECTRIC EQUIPMENT,SMALL OFFICE_BLDG_EQUIP,THERMAL ZONE 44,12.21,0.7,131.462,10.764,200.000,0.000,0.000,0.000,1.000,General
 ElectricEquipment Internal Gains, THERMAL ZONE 45 ASHRAE_90.1-2004 CLIMATEZONE 1-8 SMALLOFFICE WHOLEBUILDING ELECTRIC EQUIPMENT,SMALL OFFICE_BLDG_EQUIP,THERMAL ZONE 45,12.21,0.7,131.462,10.764,200.000,0.000,0.000,0.000,1.000,General
 ElectricEquipment Internal Gains, THERMAL ZONE 46 ASHRAE_90.1-2004 CLIMATEZONE 1-8 SMALLOFFICE WHOLEBUILDING ELECTRIC EQUIPMENT,SMALL OFFICE_BLDG_EQUIP,THERMAL ZONE 46,12.21,0.7,131.462,10.764,200.000,0.000,0.000,0.000,1.000,General
 ElectricEquipment Internal Gains, THERMAL ZONE 47 ASHRAE_90.1-2004 CLIMATEZONE 1-8 SMALLOFFICE WHOLEBUILDING ELECTRIC EQUIPMENT,SMALL OFFICE_BLDG_EQUIP,THERMAL ZONE 47,1.15,6.2E-002,12.348,10.764,200.000,0.000,0.000,0.000,1.000,General
 ElectricEquipment Internal Gains, THERMAL ZONE 48 ASHRAE_90.1-2004 CLIMATEZONE 1-8 SMALLOFFICE WHOLEBUILDING ELECTRIC EQUIPMENT,SMALL OFFICE_BLDG_EQUIP,THERMAL ZONE 48,12.21,0.7,131.462,10.764,200.000,0.000,0.000,0.000,1.000,General
 ElectricEquipment Internal Gains, THERMAL ZONE 49 ASHRAE_90.1-2004 CLIMATEZONE 1-8 SMALLOFFICE WHOLEBUILDING ELECTRIC EQUIPMENT,SMALL OFFICE_BLDG_EQUIP,THERMAL ZONE 49,12.21,0.7,131.462,10.764,200.000,0.000,0.000,0.000,1.000,General
 ElectricEquipment Internal Gains, THERMAL ZONE 5 ASHRAE_90.1-2004 CLIMATEZONE 1-8 SMALLOFFICE WHOLEBUILDING ELECTRIC EQUIPMENT,SMALL OFFICE_BLDG_EQUIP,THERMAL ZONE 5,1.15,6.2E-002,12.348,10.764,200.000,0.000,0.000,0.000,1.000,General
 ElectricEquipment Internal Gains, THERMAL ZONE 50 ASHRAE_90.1-2004 CLIMATEZONE 1-8 SMALLOFFICE WHOLEBUILDING ELECTRIC EQUIPMENT,SMALL OFFICE_BLDG_EQUIP,THERMAL ZONE 50,12.21,0.7,131.462,10.764,200.000,0.000,0.000,0.000,1.000,General
 ElectricEquipment Internal Gains, THERMAL ZONE 6 ASHRAE_90.1-2004 CLIMATEZONE 1-8 SMALLOFFICE WHOLEBUILDING ELECTRIC EQUIPMENT,SMALL OFFICE_BLDG_EQUIP,THERMAL ZONE 6,1.15,6.2E-002,12.348,10.764,200.000,0.000,0.000,0.000,1.000,General
 ElectricEquipment Internal Gains, THERMAL ZONE 7 ASHRAE_90.1-2004 CLIMATEZONE 1-8 SMALLOFFICE WHOLEBUILDING ELECTRIC EQUIPMENT,SMALL OFFICE_BLDG_EQUIP,THERMAL ZONE 7,1.15,6.2E-002,12.348,10.764,200.000,0.000,0.000,0.000,1.000,General
 ElectricEquipment Internal Gains, THERMAL ZONE 8 ASHRAE_90.1-2004 CLIMATEZONE 1-8 SMALLOFFICE WHOLEBUILDING ELECTRIC EQUIPMENT,SMALL OFFICE_BLDG_EQUIP,THERMAL ZONE 8,1.15,6.2E-002,12.348,10.764,200.000,0.000,0.000,0.000,1.000,General
 ElectricEquipment Internal Gains, THERMAL ZONE 9 ASHRAE_90.1-2004 CLIMATEZONE 1-8 SMALLOFFICE WHOLEBUILDING ELECTRIC EQUIPMENT,SMALL OFFICE_BLDG_EQUIP,THERMAL ZONE 9,12.21,0.7,131.462,10.764,200.000,0.000,0.000,0.000,1.000,General
! <Shadowing/Sun Position Calculations> [Annual Simulations], Value {days}, Allowable Number Figures in Shadow Overlap {}, Polygon Clipping Algorithm, Sky Diffuse Modeling Algorithm
Shadowing/Sun Position Calculations,20,15000,SutherlandHodgman,SimpleSkyDiffuseModeling
! <Infiltration Airflow Stats - Nominal>,Name,Schedule Name,Zone Name, Zone Floor Area {m2}, # Zone Occupants,Design Volume Flow Rate {m3/s},Volume Flow Rate/Floor Area {m3/s/m2},Volume Flow Rate/Exterior Surface Area {m3/s/m2},ACH - Air Changes per Hour,Equation A - Constant Term Coefficient {},Equation B - Temperature Term Coefficient {1/C},Equation C - Velocity Term Coefficient {s/m}, Equation D - Velocity Squared Term Coefficient {s2/m2}
 ZoneInfiltration Airflow Stats, THERMAL ZONE 1 ASHRAE_90.1-2004 CLIMATEZONE 1-8 SMALLOFFICE WHOLEBUILDING INFILTRATION,SMALL OFFICE_INFIL_QUARTER_ON,THERMAL ZONE 1,12.21,0.7,1.224E-002,1.002E-003,3.023E-004,0.902,1.000,0.000,0.000,0.000
 ZoneInfiltration Airflow Stats, THERMAL ZONE 10 ASHRAE_90.1-2004 CLIMATEZONE 1-8 SMALLOFFICE WHOLEBUILDING INFILTRATION,SMALL OFFICE_INFIL_QUARTER_ON,THERMAL ZONE 10,1.15,6.2E-002,3.467E-004,3.023E-004,3.023E-004,0.272,1.000,0.000,0.000,0.000
 ZoneInfiltration Airflow Stats, THERMAL ZONE 11 ASHRAE_90.1-2004 CLIMATEZONE 1-8 SMALLOFFICE WHOLEBUILDING INFILTRATION,SMALL OFFICE_INFIL_QUARTER_ON,THERMAL ZONE 11,12.21,0.7,8.549E-003,7.000E-004,3.023E-004,0.630,1.000,0.000,0.000,0.000
 ZoneInfiltration Airflow Stats, THERMAL ZONE 12 ASHRAE_90.1-2004 CLIMATEZONE 1-8 SMALLOFFICE WHOLEBUILDING INFILTRATION,SMALL OFFICE_INFIL_QUARTER_ON,THERMAL ZONE 12,12.21,0.7,8.549E-003,7.000E-004,3.023E-004,0.630,1.000,0.000,0.000,0.000
 ZoneInfiltration Airflow Stats, THERMAL ZONE 13 ASHRAE_90.1-2004 CLIMATEZONE 1-8 SMALLOFFICE WHOLEBUILDING INFILTRATION,SMALL OFFICE_INFIL_QUARTER_ON,THERMAL ZONE 13,1.15,6.2E-002,0.000,0.000,N/A,0.000,1.000,0.000,0.000,0.000
 ZoneInfiltration Airflow Stats, THERMAL ZONE 14 ASHRAE_90.1-2004 CLIMATEZONE 1-8 SMALLOFFICE WHOLEBUILDING INFILTRATION,SMALL OFFICE_INFIL_QUARTER_ON,THERMAL ZONE 14,1.15,6.2E-002,0.000,0.000,N/A,0.000,1.000,0.000,0.000,0.000
 ZoneInfiltration Airflow Stats, THERMAL ZONE 15 ASHRAE_90.1-2004 CLIMATEZONE 1-8 SMALLOFFICE WHOLEBUILDING INFILTRATION,SMALL OFFICE_INFIL_QUARTER_ON,THERMAL ZONE 15,12.21,0.7,8.549E-003,7.000E-004,3.023E-004,0.630,1.000,0.000,0.000,0.000
 ZoneInfiltration Airflow Stats, THERMAL ZONE 16 ASHRAE_90.1-2004 CLIMATEZONE 1-8 SMALLOFFICE WHOLEBUILDING INFILTRATION,SMALL OFFICE_INFIL_QUARTER_ON,THERMAL ZONE 16,12.21,0.7,8.549E-003,7.000E-004,3.023E-004,0.630,1.000,0.000,0.000,0.000
 ZoneInfiltration Airflow Stats, THERMAL ZONE 17 ASHRAE_90.1-2004 CLIMATEZONE 1-8 SMALLOFFICE WHOLEBUILDING INFILTRATION,SMALL OFFICE_INFIL_QUARTER_ON,THERMAL ZONE 17,12.21,0.7,8.549E-003,7.000E-004,3.023E-004,0.630,1.000,0.000,0.000,0.000
 ZoneInfiltration Airflow Stats, THERMAL ZONE 18 ASHRAE_90.1-2004 CLIMATEZONE 1-8 SMALLOFFICE WHOLEBUILDING INFILTRATION,SMALL OFFICE_INFIL_QUARTER_ON,THERMAL ZONE 18,12.21,0.7,8.549E-003,7.000E-004,3.023E-004,0.630,1.000,0.000,0.000,0.000
 ZoneInfiltration Airflow Stats, THERMAL ZONE 19 ASHRAE_90.1-2004 CLIMATEZONE 1-8 SMALLOFFICE WHOLEBUILDING INFILTRATION,SMALL OFFICE_INFIL_QUARTER_ON,THERMAL ZONE 19,12.21,0.7,8.549E-003,7.000E-004,3.023E-004,0.630,1.000,0.000,0.000,0.000
 ZoneInfiltration Airflow Stats, THERMAL ZONE 2 ASHRAE_90.1-2004 CLIMATEZONE 1-8 SMALLOFFICE WHOLEBUILDING INFILTRATION,SMALL OFFICE_INFIL_QUARTER_ON,THERMAL ZONE 2,12.21,0.7,8.549E-003,7.000E-004,3.023E-004,0.630,1.000,0.000,0.000,0.000
 ZoneInfiltration Airflow Stats, THERMAL ZONE 20 ASHRAE_90.1-2004 CLIMATEZONE 1-8 SMALLOFFICE WHOLEBUILDING INFILTRATION,SMALL OFFICE_INFIL_QUARTER_ON,THERMAL ZONE 20,12.21,0.7,8.549E-003,7.000E-004,3.023E-004,0.630,1.000,0.000,0.000,0.000
 ZoneInfiltration Airflow Stats, THERMAL ZONE 21 ASHRAE_90.1-2004 CLIMATEZONE 1-8 SMALLOFFICE WHOLEBUILDING INFILTRATION,SMALL OFFICE_INFIL_QUARTER_ON,THERMAL ZONE 21,12.21,0.7,8.549E-003,7.000E-004,3.023E-004,0.630,1.000,0.000,0.000,0.000
 ZoneInfiltration Airflow Stats, THERMAL ZONE 22 ASHRAE_90.1-2004 CLIMATEZONE 1-8 SMALLOFFICE WHOLEBUILDING INFILTRATION,SMALL OFFICE_INFIL_QUARTER_ON,THERMAL ZONE 22,12.21,0.7,8.549E-003,7.000E-004,3.023E-004,0.630,1.000,0.000,0.000,0.000
 ZoneInfiltration Airflow Stats, THERMAL ZONE 23 ASHRAE_90.1-2004 CLIMATEZONE 1-8 SMALLOFFICE WHOLEBUILDING INFILTRATION,SMALL OFFICE_INFIL_QUARTER_ON,THERMAL ZONE 23,12.21,0.7,8.549E-003,7.000E-004,3.023E-004,0.630,1.000,0.000,0.000,0.000
 ZoneInfiltration Airflow Stats, THERMAL ZONE 24 ASHRAE_90.1-2004 CLIMATEZONE 1-8 SMALLOFFICE WHOLEBUILDING INFILTRATION,SMALL OFFICE_INFIL_QUARTER_ON,THERMAL ZONE 24,12.21,0.7,8.549E-003,7.000E-004,3.023E-004,0.630,1.000,0.000,0.000,0.000
 ZoneInfiltration Airflow Stats, THERMAL ZONE 25 ASHRAE_90.1-2004 CLIMATEZONE 1-8 SMALLOFFICE WHOLEBUILDING INFILTRATION,SMALL OFFICE_INFIL_QUARTER_ON,THERMAL ZONE 25,12.21,0.7,8.549E-003,7.000E-004,3.023E-004,0.630,1.000,0.000,0.000,0.000
 ZoneInfiltration Airflow Stats, THERMAL ZONE 26 ASHRAE_90.1-2004 CLIMATEZONE 1-8 SMALLOFFICE WHOLEBUILDING INFILTRATION,SMALL OFFICE_INFIL_QUARTER_ON,THERMAL ZONE 26,12.21,0.7,8.549E-003,7.000E-004,3.023E-004,0.630,1.000,0.000,0.000,0.000
 ZoneInfiltration Airflow Stats, THERMAL ZONE 27 ASHRAE_90.1-2004 CLIMATEZONE 1-8 SMALLOFFICE WHOLEBUILDING INFILTRATION,SMALL OFFICE_INFIL_QUARTER_ON,THERMAL ZONE 27,12.21,0.7,1.224E-002,1.002E-003,3.023E-004,0.902,1.000,0.000,0.000,0.000
 ZoneInfiltration Airflow Stats, THERMAL ZONE 28 ASHRAE_90.1-2004 CLIMATEZONE 1-8 SMALLOFFICE WHOLEBUILDING INFILTRATION,SMALL OFFICE_INFIL_QUARTER_ON,THERMAL ZONE 28,1.15,6.2E-002,0.000,0.000,N/A,0.000,1.000,0.000,0.000,0.000
 ZoneInfiltration Airflow Stats, THERMAL ZONE 29 ASHRAE_90.1-2004 CLIMATEZONE 1-8 SMALLOFFICE WHOLEBUILDING INFILTRATION,SMALL OFFICE_INFIL_QUARTER_ON,THERMAL ZONE 29,12.21,0.7,8.549E-003,7.000E-004,3.023E-004,0.630,1.000,0.000,0.000,0.000
 ZoneInfiltration Airflow Stats, THERMAL ZONE 3 ASHRAE_90.1-2004 CLIMATEZONE 1-8 SMALLOFFICE WHOLEBUILDING INFILTRATION,SMALL OFFICE_INFIL_QUARTER_ON,THERMAL ZONE 3,12.21,0.7,1.224E-002,1.002E-003,3.023E-004,0.902,1.000,0.000,0.000,0.000
 ZoneInfiltration Airflow Stats, THERMAL ZONE 30 ASHRAE_90.1-2004 CLIMATEZONE 1-8 SMALLOFFICE WHOLEBUILDING INFILTRATION,SMALL OFFICE_INFIL_QUARTER_ON,THERMAL ZONE 30,12.21,0.7,8.549E-003,7.000E-004,3.023E-004,0.630,1.000,0.000,0.000,0.000
 ZoneInfiltration Airflow Stats, THERMAL ZONE 31 ASHRAE_90.1-2004 CLIMATEZONE 1-8 SMALLOFFICE WHOLEBUILDING INFILTRATION,SMALL OFFICE_INFIL_QUARTER_ON,THERMAL ZONE 31,12.21,0.7,8.549E-003,7.000E-004,3.023E-004,0.630,1.000,0.000,0.000,0.000
 ZoneInfiltration Airflow Stats, THERMAL ZONE 32 ASHRAE_90.1-2004 CLIMATEZONE 1-8 SMALLOFFICE WHOLEBUILDING INFILTRATION,SMALL OFFICE_INFIL_QUARTER_ON,THERMAL ZONE 32,1.15,6.2E-002,0.000,0.000,N/A,0.000,1.000,0.000,0.000,0.000
 ZoneInfiltration Airflow Stats, THERMAL ZONE 33 ASHRAE_90.1-2004 CLIMATEZONE 1-8 SMALLOFFICE WHOLEBUILDING INFILTRATION,SMALL OFFICE_INFIL_QUARTER_ON,THERMAL ZONE 33,12.21,0.7,8.549E-003,7.000E-004,3.023E-004,0.630,1.000,0.000,0.000,0.000
 ZoneInfiltration Airflow Stats, THERMAL ZONE 34 ASHRAE_90.1-2004 CLIMATEZONE 1-8 SMALLOFFICE WHOLEBUILDING INFILTRATION,SMALL OFFICE_INFIL_QUARTER_ON,THERMAL ZONE 34,12.21,0.7,8.549E-003,7.000E-004,3.023E-004,0.630,1.000,0.000,0.000,0.000
 ZoneInfiltration Airflow Stats, THERMAL ZONE 35 ASHRAE_90.1-2004 CLIMATEZONE 1-8 SMALLOFFICE WHOLEBUILDING INFILTRATION,SMALL OFFICE_INFIL_QUARTER_ON,THERMAL ZONE 35,12.21,0.7,8.549E-003,7.000E-004,3.023E-004,0.630,1.000,0.000,0.000,0.000
 ZoneInfiltration Airflow Stats, THERMAL ZONE 36 ASHRAE_90.1-2004 CLIMATEZONE 1-8 SMALLOFFICE WHOLEBUILDING INFILTRATION,SMALL OFFICE_INFIL_QUARTER_ON,THERMAL ZONE 36,12.21,0.7,8.549E-003,7.000E-004,3.023E-004,0.630,1.000,0.000,0.000,0.000
 ZoneInfiltration Airflow Stats, THERMAL ZONE 37 ASHRAE_90.1-2004 CLIMATEZONE 1-8 SMALLOFFICE WHOLEBUILDING INFILTRATION,SMALL OFFICE_INFIL_QUARTER_ON,THERMAL ZONE 37,12.21,0.7,8.549E-003,7.000E-004,3.023E-004,0.630,1.000,0.000,0.000,0.000
 ZoneInfiltration Airflow Stats, THERMAL ZONE 38 ASHRAE_90.1-2004 CLIMATEZONE 1-8 SMALLOFFICE WHOLEBUILDING INFILTRATION,SMALL OFFICE_INFIL_QUARTER_ON,THERMAL ZONE 38,12.21,0.7,8.549E-003,7.000E-004,3.023E-004,0.630,1.000,0.000,0.000,0.000
 ZoneInfiltration Airflow Stats, THERMAL ZONE 39 ASHRAE_90.1-2004 CLIMATEZONE 1-8 SMALLOFFICE WHOLEBUILDING INFILTRATION,SMALL OFFICE_INFIL_QUARTER_ON,THERMAL ZONE 39,12.21,0.7,1.224E-002,1.002E-003,3.023E-004,0.902,1.000,0.000,0.000,0.000
 ZoneInfiltration Airflow Stats, THERMAL ZONE 4 ASHRAE_90.1-2004 CLIMATEZONE 1-8 SMALLOFFICE WHOLEBUILDING INFILTRATION,SMALL OFFICE_INFIL_QUARTER_ON,THERMAL ZONE 4,12.21,0.7,8.549E-003,7.000E-004,3.023E-004,0.630,1.000,0.000,0.000,0.000
 ZoneInfiltration Airflow Stats, THERMAL ZONE 40 ASHRAE_90.1-2004 CLIMATEZONE 1-8 SMALLOFFICE WHOLEBUILDING INFILTRATION,SMALL OFFICE_INFIL_QUARTER_ON,THERMAL ZONE 40,12.21,0.7,8.549E-003,7.000E-004,3.023E-004,0.630,1.000,0.000,0.000,0.000
 ZoneInfiltration Airflow Stats, THERMAL ZONE 41 ASHRAE_90.1-2004 CLIMATEZONE 1-8 SMALLOFFICE WHOLEBUILDING INFILTRATION,SMALL OFFICE_INFIL_QUARTER_ON,THERMAL ZONE 41,12.21,0.7,8.549E-003,7.000E-004,3.023E-004,0.630,1.000,0.000,0.000,0.000
 ZoneInfiltration Airflow Stats, THERMAL ZONE 42 ASHRAE_90.1-2004 CLIMATEZONE 1-8 SMALLOFFICE WHOLEBUILDING INFILTRATION,SMALL OFFICE_INFIL_QUARTER_ON,THERMAL ZONE 42,12.21,0.7,8.549E-003,7.000E-004,3.023E-004,0.630,1.000,0.000,0.000,0.000
 ZoneInfiltration Airflow Stats, THERMAL ZONE 43 ASHRAE_90.1-2004 CLIMATEZONE 1-8 SMALLOFFICE WHOLEBUILDING INFILTRATION,SMALL OFFICE_INFIL_QUARTER_ON,THERMAL ZONE 43,12.21,0.7,8.549E-003,7.000E-004,3.023E-004,0.630,1.000,0.000,0.000,0.000
 ZoneInfiltration Airflow Stats, THERMAL ZONE 44 ASHRAE_90.1-2004 CLIMATEZONE 1-8 SMALLOFFICE WHOLEBUILDING INFILTRATION,SMALL OFFICE_INFIL_QUARTER_ON,THERMAL ZONE 44,12.21,0.7,8.549E-003,7.000E-004,3.023E-004,0.630,1.000,0.000,0.000,0.000
 ZoneInfiltration Airflow Stats, THERMAL ZONE 45 ASHRAE_90.1-2004 CLIMATEZONE 1-8 SMALLOFFICE WHOLEBUILDING INFILTRATION,SMALL OFFICE_INFIL_QUARTER_ON,THERMAL ZONE 45,12.21,0.7,8.549E-003,7.000E-004,3.023E-004,0.630,1.000,0.000,0.000,0.000
 ZoneInfiltration Airflow Stats, THERMAL ZONE 46 ASHRAE_90.1-2004 CLIMATEZONE 1-8 SMALLOFFICE WHOLEBUILDING INFILTRATION,SMALL OFFICE_INFIL_QUARTER_ON,THERMAL ZONE 46,12.21,0.7,8.549E-003,7.000E-004,3.023E-004,0.630,1.000,0.000,0.000,0.000
 ZoneInfiltration Airflow Stats, THERMAL ZONE 47 ASHRAE_90.1-2004 CLIMATEZONE 1-8 SMALLOFFICE WHOLEBUILDING INFILTRATION,SMALL OFFICE_INFIL_QUARTER_ON,THERMAL ZONE 47,1.15,6.2E-002,0.000,0.000,N/A,0.000,1.000,0.000,0.000,0.000
 ZoneInfiltration Airflow Stats, THERMAL ZONE 48 ASHRAE_90.1-2004 CLIMATEZONE 1-8 SMALLOFFICE WHOLEBUILDING INFILTRATION,SMALL OFFICE_INFIL_QUARTER_ON,THERMAL ZONE 48,12.21,0.7,8.549E-003,7.000E-004,3.023E-004,0.630,1.000,0.000,0.000,0.000
 ZoneInfiltration Airflow Stats, THERMAL ZONE 49 ASHRAE_90.1-2004 CLIMATEZONE 1-8 SMALLOFFICE WHOLEBUILDING INFILTRATION,SMALL OFFICE_INFIL_QUARTER_ON,THERMAL ZONE 49,12.21,0.7,8.549E-003,7.000E-004,3.023E-004,0.630,1.000,0.000,0.000,0.000
 ZoneInfiltration Airflow Stats, THERMAL ZONE 5 ASHRAE_90.1-2004 CLIMATEZONE 1-8 SMALLOFFICE WHOLEBUILDING INFILTRATION,SMALL OFFICE_INFIL_QUARTER_ON,THERMAL ZONE 5,1.15,6.2E-002,0.000,0.000,N/A,0.000,1.000,0.000,0.000,0.000
 ZoneInfiltration Airflow Stats, THERMAL ZONE 50 ASHRAE_90.1-2004 CLIMATEZONE 1-8 SMALLOFFICE WHOLEBUILDING INFILTRATION,SMALL OFFICE_INFIL_QUARTER_ON,THERMAL ZONE 50,12.21,0.7,8.549E-003,7.000E-004,3.023E-004,0.630,1.000,0.000,0.000,0.000
 ZoneInfiltration Airflow Stats, THERMAL ZONE 6 ASHRAE_90.1-2004 CLIMATEZONE 1-8 SMALLOFFICE WHOLEBUILDING INFILTRATION,SMALL OFFICE_INFIL_QUARTER_ON,THERMAL ZONE 6,1.15,6.2E-002,0.000,0.000,N/A,0.000,1.000,0.000,0.000,0.000
 ZoneInfiltration Airflow Stats, THERMAL ZONE 7 ASHRAE_90.1-2004 CLIMATEZONE 1-8 SMALLOFFICE WHOLEBUILDING INFILTRATION,SMALL OFFICE_INFIL_QUARTER_ON,THERMAL ZONE 7,1.15,6.2E-002,0.000,0.000,N/A,0.000,1.000,0.000,0.000,0.000
 ZoneInfiltration Airflow Stats, THERMAL ZONE 8 ASHRAE_90.1-2004 CLIMATEZONE 1-8 SMALLOFFICE WHOLEBUILDING INFILTRATION,SMALL OFFICE_INFIL_QUARTER_ON,THERMAL ZONE 8,1.15,6.2E-002,0.000,0.000,N/A,0.000,1.000,0.000,0.000,0.000
 ZoneInfiltration Airflow Stats, THERMAL ZONE 9 ASHRAE_90.1-2004 CLIMATEZONE 1-8 SMALLOFFICE WHOLEBUILDING INFILTRATION,SMALL OFFICE_INFIL_QUARTER_ON,THERMAL ZONE 9,12.21,0.7,8.549E-003,7.000E-004,3.023E-004,0.630,1.000,0.000,0.000,0.000
! <AirFlow Model>, Simple
 AirFlow Model, Simple
! <RoomAir Model>, Zone Name, Mixing/Mundt/UCSDDV/UCSDCV/UCSDUFI/UCSDUFE/User Defined
RoomAir Model,THERMAL ZONE 14,Mixing/Well-Stirred
RoomAir Model,THERMAL ZONE 6,Mixing/Well-Stirred
RoomAir Model,THERMAL ZONE 29,Mixing/Well-Stirred
RoomAir Model,THERMAL ZONE 35,Mixing/Well-Stirred
RoomAir Model,THERMAL ZONE 8,Mixing/Well-Stirred
RoomAir Model,THERMAL ZONE 9,Mixing/Well-Stirred
RoomAir Model,THERMAL ZONE 28,Mixing/Well-Stirred
RoomAir Model,THERMAL ZONE 7,Mixing/Well-Stirred
RoomAir Model,THERMAL ZONE 17,Mixing/Well-Stirred
RoomAir Model,THERMAL ZONE 1,Mixing/Well-Stirred
RoomAir Model,THERMAL ZONE 44,Mixing/Well-Stirred
RoomAir Model,THERMAL ZONE 45,Mixing/Well-Stirred
RoomAir Model,THERMAL ZONE 5,Mixing/Well-Stirred
RoomAir Model,THERMAL ZONE 32,Mixing/Well-Stirred
RoomAir Model,THERMAL ZONE 24,Mixing/Well-Stirred
RoomAir Model,THERMAL ZONE 11,Mixing/Well-Stirred
RoomAir Model,THERMAL ZONE 26,Mixing/Well-Stirred
RoomAir Model,THERMAL ZONE 27,Mixing/Well-Stirred
RoomAir Model,THERMAL ZONE 39,Mixing/Well-Stirred
RoomAir Model,THERMAL ZONE 10,Mixing/Well-Stirred
RoomAir Model,THERMAL ZONE 37,Mixing/Well-Stirred
RoomAir Model,THERMAL ZONE 2,Mixing/Well-Stirred
RoomAir Model,THERMAL ZONE 22,Mixing/Well-Stirred
RoomAir Model,THERMAL ZONE 41,Mixing/Well-Stirred
RoomAir Model,THERMAL ZONE 34,Mixing/Well-Stirred
RoomAir Model,THERMAL ZONE 49,Mixing/Well-Stirred
RoomAir Model,THERMAL ZONE 31,Mixing/Well-Stirred
RoomAir Model,THERMAL ZONE 42,Mixing/Well-Stirred
RoomAir Model,THERMAL ZONE 40,Mixing/Well-Stirred
RoomAir Model,THERMAL ZONE 47,Mixing/Well-Stirred
RoomAir Model,THERMAL ZONE 36,Mixing/Well-Stirred
RoomAir Model,THERMAL ZONE 19,Mixing/Well-Stirred
RoomAir Model,THERMAL ZONE 43,Mixing/Well-Stirred
RoomAir Model,THERMAL ZONE 12,Mixing/Well-Stirred
RoomAir Model,THERMAL ZONE 25,Mixing/Well-Stirred
RoomAir Model,THERMAL ZONE 33,Mixing/Well-Stirred
RoomAir Model,THERMAL ZONE 3,Mixing/Well-Stirred
RoomAir Model,THERMAL ZONE 21,Mixing/Well-Stirred
RoomAir Model,THERMAL ZONE 20,Mixing/Well-Stirred
RoomAir Model,THERMAL ZONE 15,Mixing/Well-Stirred
RoomAir Model,THERMAL ZONE 4,Mixing/Well-Stirred
RoomAir Model,THERMAL ZONE 30,Mixing/Well-Stirred
RoomAir Model,THERMAL ZONE 18,Mixing/Well-Stirred
RoomAir Model,THERMAL ZONE 46,Mixing/Well-Stirred
RoomAir Model,THERMAL ZONE 16,Mixing/Well-Stirred
RoomAir Model,THERMAL ZONE 38,Mixing/Well-Stirred
RoomAir Model,THERMAL ZONE 23,Mixing/Well-Stirred
RoomAir Model,THERMAL ZONE 13,Mixing/Well-Stirred
RoomAir Model,THERMAL ZONE 48,Mixing/Well-Stirred
RoomAir Model,THERMAL ZONE 50,Mixing/Well-Stirred
! <AirflowNetwork Model:Control>, No Multizone or Distribution/Multizone with Distribution/Multizone without Distribution/Multizone with Distribution only during Fan Operation
AirflowNetwork Model:Control,NoMultizoneOrDistribution
! <Zone Volume Capacitance Multiplier>, Sensible Heat Capacity Multiplier, Moisture Capacity Multiplier, Carbon Dioxide Capacity Multiplier, Generic Contaminant Capacity Multiplier
Zone Volume Capacitance Multiplier,   1.000 ,   1.000,   1.000,   1.000
! <Load Timesteps in Zone Design Calculation Averaging Window>, Value
 Load Timesteps in Zone Design Calculation Averaging Window,    4
! <Heating Sizing Factor Information>, Sizing Factor ID, Value
 Heating Sizing Factor Information, Global,   1.2500    
 Heating Sizing Factor Information, Zone THERMAL ZONE 14,   1.2500    
 Heating Sizing Factor Information, Zone THERMAL ZONE 6,   1.2500    
 Heating Sizing Factor Information, Zone THERMAL ZONE 29,   1.2500    
 Heating Sizing Factor Information, Zone THERMAL ZONE 35,   1.2500    
 Heating Sizing Factor Information, Zone THERMAL ZONE 8,   1.2500    
 Heating Sizing Factor Information, Zone THERMAL ZONE 9,   1.2500    
 Heating Sizing Factor Information, Zone THERMAL ZONE 28,   1.2500    
 Heating Sizing Factor Information, Zone THERMAL ZONE 7,   1.2500    
 Heating Sizing Factor Information, Zone THERMAL ZONE 17,   1.2500    
 Heating Sizing Factor Information, Zone THERMAL ZONE 1,   1.2500    
 Heating Sizing Factor Information, Zone THERMAL ZONE 44,   1.2500    
 Heating Sizing Factor Information, Zone THERMAL ZONE 45,   1.2500    
 Heating Sizing Factor Information, Zone THERMAL ZONE 5,   1.2500    
 Heating Sizing Factor Information, Zone THERMAL ZONE 32,   1.2500    
 Heating Sizing Factor Information, Zone THERMAL ZONE 24,   1.2500    
 Heating Sizing Factor Information, Zone THERMAL ZONE 11,   1.2500    
 Heating Sizing Factor Information, Zone THERMAL ZONE 26,   1.2500    
 Heating Sizing Factor Information, Zone THERMAL ZONE 27,   1.2500    
 Heating Sizing Factor Information, Zone THERMAL ZONE 39,   1.2500    
 Heating Sizing Factor Information, Zone THERMAL ZONE 10,   1.2500    
 Heating Sizing Factor Information, Zone THERMAL ZONE 37,   1.2500    
 Heating Sizing Factor Information, Zone THERMAL ZONE 2,   1.2500    
 Heating Sizing Factor Information, Zone THERMAL ZONE 22,   1.2500    
 Heating Sizing Factor Information, Zone THERMAL ZONE 41,   1.2500    
 Heating Sizing Factor Information, Zone THERMAL ZONE 34,   1.2500    
 Heating Sizing Factor Information, Zone THERMAL ZONE 49,   1.2500    
 Heating Sizing Factor Information, Zone THERMAL ZONE 31,   1.2500    
 Heating Sizing Factor Information, Zone THERMAL ZONE 42,   1.2500    
 Heating Sizing Factor Information, Zone THERMAL ZONE 40,   1.2500    
 Heating Sizing Factor Information, Zone THERMAL ZONE 47,   1.2500    
 Heating Sizing Factor Information, Zone THERMAL ZONE 36,   1.2500    
 Heating Sizing Factor Information, Zone THERMAL ZONE 19,   1.2500    
 Heating Sizing Factor Information, Zone THERMAL ZONE 43,   1.2500    
 Heating Sizing Factor Information, Zone THERMAL ZONE 12,   1.2500    
 Heating Sizing Factor Information, Zone THERMAL ZONE 25,   1.2500    
 Heating Sizing Factor Information, Zone THERMAL ZONE 33,   1.2500    
 Heating Sizing Factor Information, Zone THERMAL ZONE 3,   1.2500    
 Heating Sizing Factor Information, Zone THERMAL ZONE 21,   1.2500    
 Heating Sizing Factor Information, Zone THERMAL ZONE 20,   1.2500    
 Heating Sizing Factor Information, Zone THERMAL ZONE 15,   1.2500    
 Heating Sizing Factor Information, Zone THERMAL ZONE 4,   1.2500    
 Heating Sizing Factor Information, Zone THERMAL ZONE 30,   1.2500    
 Heating Sizing Factor Information, Zone THERMAL ZONE 18,   1.2500    
 Heating Sizing Factor Information, Zone THERMAL ZONE 46,   1.2500    
 Heating Sizing Factor Information, Zone THERMAL ZONE 16,   1.2500    
 Heating Sizing Factor Information, Zone THERMAL ZONE 38,   1.2500    
 Heating Sizing Factor Information, Zone THERMAL ZONE 23,   1.2500    
 Heating Sizing Factor Information, Zone THERMAL ZONE 13,   1.2500    
 Heating Sizing Factor Information, Zone THERMAL ZONE 48,   1.2500    
 Heating Sizing Factor Information, Zone THERMAL ZONE 50,   1.2500    
! <Cooling Sizing Factor Information>, Sizing Factor ID, Value
 Cooling Sizing Factor Information, Global,   1.1500    
 Cooling Sizing Factor Information, Zone THERMAL ZONE 14,   1.1500    
 Cooling Sizing Factor Information, Zone THERMAL ZONE 6,   1.1500    
 Cooling Sizing Factor Information, Zone THERMAL ZONE 29,   1.1500    
 Cooling Sizing Factor Information, Zone THERMAL ZONE 35,   1.1500    
 Cooling Sizing Factor Information, Zone THERMAL ZONE 8,   1.1500    
 Cooling Sizing Factor Information, Zone THERMAL ZONE 9,   1.1500    
 Cooling Sizing Factor Information, Zone THERMAL ZONE 28,   1.1500    
 Cooling Sizing Factor Information, Zone THERMAL ZONE 7,   1.1500    
 Cooling Sizing Factor Information, Zone THERMAL ZONE 17,   1.1500    
 Cooling Sizing Factor Information, Zone THERMAL ZONE 1,   1.1500    
 Cooling Sizing Factor Information, Zone THERMAL ZONE 44,   1.1500    
 Cooling Sizing Factor Information, Zone THERMAL ZONE 45,   1.1500    
 Cooling Sizing Factor Information, Zone THERMAL ZONE 5,   1.1500    
 Cooling Sizing Factor Information, Zone THERMAL ZONE 32,   1.1500    
 Cooling Sizing Factor Information, Zone THERMAL ZONE 24,   1.1500    
 Cooling Sizing Factor Information, Zone THERMAL ZONE 11,   1.1500    
 Cooling Sizing Factor Information, Zone THERMAL ZONE 26,   1.1500    
 Cooling Sizing Factor Information, Zone THERMAL ZONE 27,   1.1500    
 Cooling Sizing Factor Information, Zone THERMAL ZONE 39,   1.1500    
 Cooling Sizing Factor Information, Zone THERMAL ZONE 10,   1.1500    
 Cooling Sizing Factor Information, Zone THERMAL ZONE 37,   1.1500    
 Cooling Sizing Factor Information, Zone THERMAL ZONE 2,   1.1500    
 Cooling Sizing Factor Information, Zone THERMAL ZONE 22,   1.1500    
 Cooling Sizing Factor Information, Zone THERMAL ZONE 41,   1.1500    
 Cooling Sizing Factor Information, Zone THERMAL ZONE 34,   1.1500    
 Cooling Sizing Factor Information, Zone THERMAL ZONE 49,   1.1500    
 Cooling Sizing Factor Information, Zone THERMAL ZONE 31,   1.1500    
 Cooling Sizing Factor Information, Zone THERMAL ZONE 42,   1.1500    
 Cooling Sizing Factor Information, Zone THERMAL ZONE 40,   1.1500    
 Cooling Sizing Factor Information, Zone THERMAL ZONE 47,   1.1500    
 Cooling Sizing Factor Information, Zone THERMAL ZONE 36,   1.1500    
 Cooling Sizing Factor Information, Zone THERMAL ZONE 19,   1.1500    
 Cooling Sizing Factor Information, Zone THERMAL ZONE 43,   1.1500    
 Cooling Sizing Factor Information, Zone THERMAL ZONE 12,   1.1500    
 Cooling Sizing Factor Information, Zone THERMAL ZONE 25,   1.1500    
 Cooling Sizing Factor Information, Zone THERMAL ZONE 33,   1.1500    
 Cooling Sizing Factor Information, Zone THERMAL ZONE 3,   1.1500    
 Cooling Sizing Factor Information, Zone THERMAL ZONE 21,   1.1500    
 Cooling Sizing Factor Information, Zone THERMAL ZONE 20,   1.1500    
 Cooling Sizing Factor Information, Zone THERMAL ZONE 15,   1.1500    
 Cooling Sizing Factor Information, Zone THERMAL ZONE 4,   1.1500    
 Cooling Sizing Factor Information, Zone THERMAL ZONE 30,   1.1500    
 Cooling Sizing Factor Information, Zone THERMAL ZONE 18,   1.1500    
 Cooling Sizing Factor Information, Zone THERMAL ZONE 46,   1.1500    
 Cooling Sizing Factor Information, Zone THERMAL ZONE 16,   1.1500    
 Cooling Sizing Factor Information, Zone THERMAL ZONE 38,   1.1500    
 Cooling Sizing Factor Information, Zone THERMAL ZONE 23,   1.1500    
 Cooling Sizing Factor Information, Zone THERMAL ZONE 13,   1.1500    
 Cooling Sizing Factor Information, Zone THERMAL ZONE 48,   1.1500    
 Cooling Sizing Factor Information, Zone THERMAL ZONE 50,   1.1500    
! <Zone Sizing Information>, Zone Name, Load Type, Calc Des Load {W}, User Des Load {W}, Calc Des Air Flow Rate {m3/s}, User Des Air Flow Rate {m3/s}, Design Day Name, Date/Time of Peak, Temperature at Peak {C}, Humidity Ratio at Peak {kgWater/kgDryAir}, Floor Area {m2}, # Occupants, Calc Outdoor Air Flow Rate {m3/s}
 Zone Sizing Information, THERMAL ZONE 14, Cooling, 68.44433, 78.71097, 3.97866E-003, 4.57546E-003, SAN FRANCISCO INTL AP ANN CLG .4% CONDNS DB=>MWB, 8/21 17:15:00, 26.89750, 7.71372E-003, 1.14719, 6.17411E-002, 5.82771E-004
 Zone Sizing Information, THERMAL ZONE 14, Heating, 27.91575, 34.89469, 1.42108E-003, 1.77634E-003, SAN FRANCISCO INTL AP ANN HTG 99.6% CONDNS DB, 1/21 07:00:00, 3.80000, 4.96421E-003, 1.14719, 6.17411E-002, 5.82771E-004
 Zone Sizing Information, THERMAL ZONE 6, Cooling, 68.38285, 78.64028, 3.97509E-003, 4.57135E-003, SAN FRANCISCO INTL AP ANN CLG .4% CONDNS DB=>MWB, 8/21 17:15:00, 26.89750, 7.71372E-003, 1.14719, 6.17411E-002, 5.82771E-004
 Zone Sizing Information, THERMAL ZONE 6, Heating, 27.98793, 34.98492, 1.42475E-003, 1.78094E-003, SAN FRANCISCO INTL AP ANN HTG 99.6% CONDNS DB, 1/21 07:00:00, 3.80000, 4.96421E-003, 1.14719, 6.17411E-002, 5.82771E-004
[...]
 Warmup Convergence Information,THERMAL ZONE 13,SizingPeriod: SAN FRANCISCO INTL AP ANN HUM_N 99.6% CONDNS DP=>MCDB,1.2069386216E-004,4.1022928709E-004,Pass,Pass,1.7179677205E-004,7.5745832670E-004,Pass,Pass
 Warmup Convergence Information,THERMAL ZONE 48,SizingPeriod: SAN FRANCISCO INTL AP ANN HUM_N 99.6% CONDNS DP=>MCDB,3.5177007161E-003,1.3369279990E-003,Pass,Pass,1.1008510827E-002,4.1699443602E-002,Pass,Pass
 Warmup Convergence Information,THERMAL ZONE 50,SizingPeriod: SAN FRANCISCO INTL AP ANN HUM_N 99.6% CONDNS DP=>MCDB,3.3193472985E-003,1.7980216862E-003,Pass,Pass,7.4736936016E-003,3.1879180456E-002,Pass,Pass
Environment,SAN FRANCISCO INTL AP ANN HTG WIND 99.6% CONDNS WS=>MCDB,SizingPeriod:DesignDay,01/21,01/21,WinterDesignDay,1,N/A,N/A,N/A,N/A,N/A,N/A
Environment:Daylight Saving,No,SizingPeriod:DesignDay
Environment:Design Day Data,12.10,0.00,DefaultMultipliers,101301,150,12.9,0.00,No ,No 
Environment:Design_Day_Misc, 21,1229.0,0.1415,5.7310E-002,1.0,-11.15,-20.1,ASHRAEClearSky
Environment:WarmupDays,  6
 Warmup Convergence Information,THERMAL ZONE 14,SizingPeriod: SAN FRANCISCO INTL AP ANN HTG WIND 99.6% CONDNS WS=>MCDB,2.4986413187E-003,8.7248608726E-004,Pass,Pass,7.3472812461E-003,2.6597102848E-003,Pass,Pass
 Warmup Convergence Information,THERMAL ZONE 6,SizingPeriod: SAN FRANCISCO INTL AP ANN HTG WIND 99.6% CONDNS WS=>MCDB,2.2677041952E-003,1.1505976081E-003,Pass,Pass,6.2520981926E-003,3.6410885677E-003,Pass,Pass
 Warmup Convergence Information,THERMAL ZONE 29,SizingPeriod: SAN FRANCISCO INTL AP ANN HTG WIND 99.6% CONDNS WS=>MCDB,1.3555127455E-004,4.0033846472E-004,Pass,Pass,6.2552236857E-003,4.2986319864E-002,Pass,Pass
 Warmup Convergence Information,THERMAL ZONE 35,SizingPeriod: SAN FRANCISCO INTL AP ANN HTG WIND 99.6% CONDNS WS=>MCDB,1.3529099352E-003,1.4764611419E-003,Pass,Pass,8.4958351747E-003,4.2749665890E-002,Pass,Pass
 Warmup Convergence Information,THERMAL ZONE 8,SizingPeriod: SAN FRANCISCO INTL AP ANN HTG WIND 99.6% CONDNS WS=>MCDB,2.4491943129E-003,9.0733193107E-004,Pass,Pass,6.9242921923E-003,2.8245589996E-003,Pass,Pass
 Warmup Convergence Information,THERMAL ZONE 9,SizingPeriod: SAN FRANCISCO INTL AP ANN HTG WIND 99.6% CONDNS WS=>MCDB,3.1581238141E-003,1.3212242044E-003,Pass,Pass,1.0289486580E-002,4.2206902623E-002,Pass,Pass
 Warmup Convergence Information,THERMAL ZONE 28,SizingPeriod: SAN FRANCISCO INTL AP ANN HTG WIND 99.6% CONDNS WS=>MCDB,9.0944350478E-005,2.1085356867E-004,Pass,Pass,2.0542245560E-004,9.4067074642E-004,Pass,Pass
 Warmup Convergence Information,THERMAL ZONE 7,SizingPeriod: SAN FRANCISCO INTL AP ANN HTG WIND 99.6% CONDNS WS=>MCDB,5.6073121374E-004,1.1063783322E-003,Pass,Pass,1.2686451649E-003,2.8894702641E-003,Pass,Pass
 Warmup Convergence Information,THERMAL ZONE 17,SizingPeriod: SAN FRANCISCO INTL AP ANN HTG WIND 99.6% CONDNS WS=>MCDB,1.4026731768E-003,1.3361350432E-003,Pass,Pass,8.8006624366E-003,4.3047196140E-002,Pass,Pass
 Warmup Convergence Information,THERMAL ZONE 1,SizingPeriod: SAN FRANCISCO INTL AP ANN HTG WIND 99.6% CONDNS WS=>MCDB,2.3543561000E-003,2.5448700855E-003,Pass,Pass,9.6321801971E-003,5.2469473360E-002,Pass,Pass
 Warmup Convergence Information,THERMAL ZONE 44,SizingPeriod: SAN FRANCISCO INTL AP ANN HTG WIND 99.6% CONDNS WS=>MCDB,1.4426211318E-004,4.5337867082E-004,Pass,Pass,6.2463121283E-003,4.2897985064E-002,Pass,Pass
 Warmup Convergence Information,THERMAL ZONE 45,SizingPeriod: SAN FRANCISCO INTL AP ANN HTG WIND 99.6% CONDNS WS=>MCDB,2.8945586594E-003,1.8788447477E-003,Pass,Pass,9.6841377026E-003,4.2313946309E-002,Pass,Pass
 Warmup Convergence Information,THERMAL ZONE 5,SizingPeriod: SAN FRANCISCO INTL AP ANN HTG WIND 99.6% CONDNS WS=>MCDB,1.4411663539E-003,1.3841748087E-003,Pass,Pass,3.4617917671E-003,3.6393402804E-003,Pass,Pass
 Warmup Convergence Information,THERMAL ZONE 32,SizingPeriod: SAN FRANCISCO INTL AP ANN HTG WIND 99.6% CONDNS WS=>MCDB,6.8922285427E-005,2.0429107411E-004,Pass,Pass,9.6469675798E-005,4.1523518912E-004,Pass,Pass
 Warmup Convergence Information,THERMAL ZONE 24,SizingPeriod: SAN FRANCISCO INTL AP ANN HTG WIND 99.6% CONDNS WS=>MCDB,1.1195225613E-003,1.4493051355E-003,Pass,Pass,7.1151015852E-003,4.2831018593E-002,Pass,Pass
 Warmup Convergence Information,THERMAL ZONE 11,SizingPeriod: SAN FRANCISCO INTL AP ANN HTG WIND 99.6% CONDNS WS=>MCDB,3.5377013355E-003,1.1395568707E-003,Pass,Pass,8.9712151102E-003,3.2112892984E-002,Pass,Pass
 Warmup Convergence Information,THERMAL ZONE 26,SizingPeriod: SAN FRANCISCO INTL AP ANN HTG WIND 99.6% CONDNS WS=>MCDB,2.2395046671E-003,1.5285477630E-003,Pass,Pass,8.8908290297E-003,4.2416085972E-002,Pass,Pass
 Warmup Convergence Information,THERMAL ZONE 27,SizingPeriod: SAN FRANCISCO INTL AP ANN HTG WIND 99.6% CONDNS WS=>MCDB,2.2093444029E-003,2.5995772244E-003,Pass,Pass,1.0040982987E-002,5.2273682177E-002,Pass,Pass
 Warmup Convergence Information,THERMAL ZONE 39,SizingPeriod: SAN FRANCISCO INTL AP ANN HTG WIND 99.6% CONDNS WS=>MCDB,2.3722789714E-004,8.9824591061E-004,Pass,Pass,7.7567280690E-003,5.3672953067E-002,Pass,Pass
 Warmup Convergence Information,THERMAL ZONE 10,SizingPeriod: SAN FRANCISCO INTL AP ANN HTG WIND 99.6% CONDNS WS=>MCDB,1.1668075040E-003,1.1312419647E-003,Pass,Pass,5.6350475088E-003,2.2174271679E-002,Pass,Pass
 Warmup Convergence Information,THERMAL ZONE 37,SizingPeriod: SAN FRANCISCO INTL AP ANN HTG WIND 99.6% CONDNS WS=>MCDB,1.1355379661E-003,1.4470257248E-003,Pass,Pass,7.1054775543E-003,4.2686119685E-002,Pass,Pass
 Warmup Convergence Information,THERMAL ZONE 2,SizingPeriod: SAN FRANCISCO INTL AP ANN HTG WIND 99.6% CONDNS WS=>MCDB,1.4050632521E-003,1.3373239719E-003,Pass,Pass,8.8021548915E-003,4.3060647324E-002,Pass,Pass
 Warmup Convergence Information,THERMAL ZONE 22,SizingPeriod: SAN FRANCISCO INTL AP ANN HTG WIND 99.6% CONDNS WS=>MCDB,1.2964507018E-003,1.6654049268E-003,Pass,Pass,7.9750035198E-003,4.2564162160E-002,Pass,Pass
 Warmup Convergence Information,THERMAL ZONE 41,SizingPeriod: SAN FRANCISCO INTL AP ANN HTG WIND 99.6% CONDNS WS=>MCDB,2.6968952273E-003,5.4646207530E-004,Pass,Pass,1.0741098713E-002,4.2996469690E-002,Pass,Pass
 Warmup Convergence Information,THERMAL ZONE 34,SizingPeriod: SAN FRANCISCO INTL AP ANN HTG WIND 99.6% CONDNS WS=>MCDB,1.1709956409E-003,1.5848278920E-003,Pass,Pass,7.1969986935E-003,4.3168752056E-002,Pass,Pass
 Warmup Convergence Information,THERMAL ZONE 49,SizingPeriod: SAN FRANCISCO INTL AP ANN HTG WIND 99.6% CONDNS WS=>MCDB,3.2609632635E-003,1.0301330664E-003,Pass,Pass,1.1166429871E-002,4.2829553329E-002,Pass,Pass
 Warmup Convergence Information,THERMAL ZONE 31,SizingPeriod: SAN FRANCISCO INTL AP ANN HTG WIND 99.6% CONDNS WS=>MCDB,2.6817706056E-003,8.7050433179E-004,Pass,Pass,1.0410231478E-002,4.2488516167E-002,Pass,Pass
 Warmup Convergence Information,THERMAL ZONE 42,SizingPeriod: SAN FRANCISCO INTL AP ANN HTG WIND 99.6% CONDNS WS=>MCDB,1.9841351040E-003,1.9604621401E-003,Pass,Pass,7.0718811158E-003,3.1455594926E-002,Pass,Pass
 Warmup Convergence Information,THERMAL ZONE 40,SizingPeriod: SAN FRANCISCO INTL AP ANN HTG WIND 99.6% CONDNS WS=>MCDB,2.2251195197E-003,2.2007442176E-003,Pass,Pass,9.2526807879E-003,4.2201203365E-002,Pass,Pass
 Warmup Convergence Information,THERMAL ZONE 47,SizingPeriod: SAN FRANCISCO INTL AP ANN HTG WIND 99.6% CONDNS WS=>MCDB,5.8903685587E-004,1.1335688996E-003,Pass,Pass,1.2615726692E-003,2.8547508145E-003,Pass,Pass
 Warmup Convergence Information,THERMAL ZONE 36,SizingPeriod: SAN FRANCISCO INTL AP ANN HTG WIND 99.6% CONDNS WS=>MCDB,1.9395510270E-004,7.4953973151E-004,Pass,Pass,6.2712546908E-003,4.3028287183E-002,Pass,Pass
 Warmup Convergence Information,THERMAL ZONE 19,SizingPeriod: SAN FRANCISCO INTL AP ANN HTG WIND 99.6% CONDNS WS=>MCDB,1.7122093322E-003,1.1994526943E-003,Pass,Pass,8.5134297137E-003,4.2815283025E-002,Pass,Pass
 Warmup Convergence Information,THERMAL ZONE 43,SizingPeriod: SAN FRANCISCO INTL AP ANN HTG WIND 99.6% CONDNS WS=>MCDB,1.4917790070E-004,6.1076260674E-004,Pass,Pass,6.2337858604E-003,4.2674439353E-002,Pass,Pass
 Warmup Convergence Information,THERMAL ZONE 12,SizingPeriod: SAN FRANCISCO INTL AP ANN HTG WIND 99.6% CONDNS WS=>MCDB,1.6260169863E-003,1.7174188603E-003,Pass,Pass,7.9759131630E-003,4.2885821597E-002,Pass,Pass
 Warmup Convergence Information,THERMAL ZONE 25,SizingPeriod: SAN FRANCISCO INTL AP ANN HTG WIND 99.6% CONDNS WS=>MCDB,3.4694403447E-004,8.8289793614E-004,Pass,Pass,6.3636251862E-003,4.2359059467E-002,Pass,Pass
 Warmup Convergence Information,THERMAL ZONE 33,SizingPeriod: SAN FRANCISCO INTL AP ANN HTG WIND 99.6% CONDNS WS=>MCDB,1.2075103505E-003,1.4695716158E-003,Pass,Pass,7.1652116973E-003,4.2750183448E-002,Pass,Pass
 Warmup Convergence Information,THERMAL ZONE 3,SizingPeriod: SAN FRANCISCO INTL AP ANN HTG WIND 99.6% CONDNS WS=>MCDB,1.4929211206E-003,1.8327762483E-003,Pass,Pass,9.3495889711E-003,5.2623161379E-002,Pass,Pass
 Warmup Convergence Information,THERMAL ZONE 21,SizingPeriod: SAN FRANCISCO INTL AP ANN HTG WIND 99.6% CONDNS WS=>MCDB,3.3901304497E-003,1.7048709030E-003,Pass,Pass,9.8016730545E-003,4.2709301425E-002,Pass,Pass
 Warmup Convergence Information,THERMAL ZONE 20,SizingPeriod: SAN FRANCISCO INTL AP ANN HTG WIND 99.6% CONDNS WS=>MCDB,3.4093278403E-003,1.8270511549E-003,Pass,Pass,9.8491889272E-003,4.1805539976E-002,Pass,Pass
 Warmup Convergence Information,THERMAL ZONE 15,SizingPeriod: SAN FRANCISCO INTL AP ANN HTG WIND 99.6% CONDNS WS=>MCDB,2.5806847996E-003,8.9103798384E-004,Pass,Pass,1.0553421015E-002,4.2868654151E-002,Pass,Pass
 Warmup Convergence Information,THERMAL ZONE 4,SizingPeriod: SAN FRANCISCO INTL AP ANN HTG WIND 99.6% CONDNS WS=>MCDB,6.1088745575E-004,1.1710801990E-003,Pass,Pass,6.7287835715E-003,4.3010382463E-002,Pass,Pass
 Warmup Convergence Information,THERMAL ZONE 30,SizingPeriod: SAN FRANCISCO INTL AP ANN HTG WIND 99.6% CONDNS WS=>MCDB,2.5384701041E-003,2.0501374515E-003,Pass,Pass,9.2366829821E-003,4.3321459114E-002,Pass,Pass
 Warmup Convergence Information,THERMAL ZONE 18,SizingPeriod: SAN FRANCISCO INTL AP ANN HTG WIND 99.6% CONDNS WS=>MCDB,9.6526504067E-004,1.5675748949E-003,Pass,Pass,5.6161235411E-003,3.2075108125E-002,Pass,Pass
 Warmup Convergence Information,THERMAL ZONE 46,SizingPeriod: SAN FRANCISCO INTL AP ANN HTG WIND 99.6% CONDNS WS=>MCDB,2.6838586833E-003,5.1936887212E-004,Pass,Pass,1.0662213535E-002,4.2906164414E-002,Pass,Pass
 Warmup Convergence Information,THERMAL ZONE 16,SizingPeriod: SAN FRANCISCO INTL AP ANN HTG WIND 99.6% CONDNS WS=>MCDB,1.0666351975E-003,1.3771309434E-003,Pass,Pass,7.0831825703E-003,4.2997910681E-002,Pass,Pass
 Warmup Convergence Information,THERMAL ZONE 38,SizingPeriod: SAN FRANCISCO INTL AP ANN HTG WIND 99.6% CONDNS WS=>MCDB,1.4388391895E-003,1.3541388912E-003,Pass,Pass,8.7301187627E-003,4.2675992248E-002,Pass,Pass
 Warmup Convergence Information,THERMAL ZONE 23,SizingPeriod: SAN FRANCISCO INTL AP ANN HTG WIND 99.6% CONDNS WS=>MCDB,2.1307129624E-003,1.6578732143E-003,Pass,Pass,9.1517637999E-003,4.2819093230E-002,Pass,Pass
 Warmup Convergence Information,THERMAL ZONE 13,SizingPeriod: SAN FRANCISCO INTL AP ANN HTG WIND 99.6% CONDNS WS=>MCDB,2.5093624910E-003,8.7045188184E-004,Pass,Pass,7.1780754248E-003,2.8038806252E-003,Pass,Pass
 Warmup Convergence Information,THERMAL ZONE 48,SizingPeriod: SAN FRANCISCO INTL AP ANN HTG WIND 99.6% CONDNS WS=>MCDB,1.1656383709E-003,1.1391935734E-003,Pass,Pass,8.0774854773E-003,4.2614744983E-002,Pass,Pass
 Warmup Convergence Information,THERMAL ZONE 50,SizingPeriod: SAN FRANCISCO INTL AP ANN HTG WIND 99.6% CONDNS WS=>MCDB,3.1564285491E-003,8.5015639130E-004,Pass,Pass,8.2985984213E-003,3.1509069172E-002,Pass,Pass
Environment,RUN PERIOD 1,WeatherFileRunPeriod,01/01,12/31,Thursday,365,Use RunPeriod Specified Day,Yes,Yes,No ,Yes,Yes
Environment:Daylight Saving,Yes,InputFile,03/08,11/01
Environment:WarmupDays,  6
 Warmup Convergence Information,THERMAL ZONE 14,RunPeriod: RUN PERIOD 1,4.1385757855E-002,6.0632157091E-002,Pass,Pass,0.1269859279,0.3746380163,Pass,Pass
 Warmup Convergence Information,THERMAL ZONE 6,RunPeriod: RUN PERIOD 1,4.1257306234E-002,6.0684752049E-002,Pass,Pass,0.1336321403,0.4303024642,Pass,Pass
 Warmup Convergence Information,THERMAL ZONE 29,RunPeriod: RUN PERIOD 1,8.4326943686E-002,0.1257061155,Pass,Pass,8.5296219775E-002,0.1471357695,Pass,Pass
 Warmup Convergence Information,THERMAL ZONE 35,RunPeriod: RUN PERIOD 1,5.9803038910E-003,1.5248162676E-002,Pass,Pass,0.4657214265,2.4664570445,Pass,Pass
 Warmup Convergence Information,THERMAL ZONE 8,RunPeriod: RUN PERIOD 1,4.0701167097E-002,6.0504448185E-002,Pass,Pass,0.3156451719,2.1004664791,Pass,Pass
 Warmup Convergence Information,THERMAL ZONE 9,RunPeriod: RUN PERIOD 1,2.4204080154E-002,4.5080003463E-002,Pass,Pass,0.1145477818,0.2014953590,Pass,Pass
 Warmup Convergence Information,THERMAL ZONE 28,RunPeriod: RUN PERIOD 1,8.4575423727E-002,9.6912887753E-002,Pass,Pass,8.8219181619E-003,1.3528224907E-002,Pass,Pass
 Warmup Convergence Information,THERMAL ZONE 7,RunPeriod: RUN PERIOD 1,4.1420468742E-002,6.0626839482E-002,Pass,Pass,0.1281092113,0.3867687018,Pass,Pass
 Warmup Convergence Information,THERMAL ZONE 17,RunPeriod: RUN PERIOD 1,6.6753655716E-003,1.6608115222E-002,Pass,Pass,0.2973835002,1.1341787925,Pass,Pass
 Warmup Convergence Information,THERMAL ZONE 1,RunPeriod: RUN PERIOD 1,2.1547646953E-002,5.8305386267E-002,Pass,Pass,0.3427245438,1.1161800050,Pass,Pass
 Warmup Convergence Information,THERMAL ZONE 44,RunPeriod: RUN PERIOD 1,8.4347381078E-002,0.1250476551,Pass,Pass,8.6430968149E-002,0.1379328879,Pass,Pass
 Warmup Convergence Information,THERMAL ZONE 45,RunPeriod: RUN PERIOD 1,2.4058261761E-002,4.4377426848E-002,Pass,Pass,0.1194824679,0.2104963690,Pass,Pass
 Warmup Convergence Information,THERMAL ZONE 5,RunPeriod: RUN PERIOD 1,4.0928137400E-002,6.0419741084E-002,Pass,Pass,0.1216607969,0.3049725648,Pass,Pass
 Warmup Convergence Information,THERMAL ZONE 32,RunPeriod: RUN PERIOD 1,4.1540054916E-002,6.0473741201E-002,Pass,Pass,1.6087682375,14.7216470010,Pass,Pass
 Warmup Convergence Information,THERMAL ZONE 24,RunPeriod: RUN PERIOD 1,2.8715280888E-002,7.5482942787E-002,Pass,Pass,0.3139635198,0.9732364904,Pass,Pass
 Warmup Convergence Information,THERMAL ZONE 11,RunPeriod: RUN PERIOD 1,7.0784658824E-003,2.5629563968E-002,Pass,Pass,0.2065425739,0.5515771401,Pass,Pass
 Warmup Convergence Information,THERMAL ZONE 26,RunPeriod: RUN PERIOD 1,2.4095515878E-002,4.5422483947E-002,Pass,Pass,0.1137482080,0.2000960024,Pass,Pass
 Warmup Convergence Information,THERMAL ZONE 27,RunPeriod: RUN PERIOD 1,3.1319078949E-003,9.8323279883E-003,Pass,Pass,0.2118457381,0.6646562036,Pass,Pass
 Warmup Convergence Information,THERMAL ZONE 39,RunPeriod: RUN PERIOD 1,8.4806727592E-002,0.1264401867,Pass,Pass,0.1749527316,0.6238806056,Pass,Pass
 Warmup Convergence Information,THERMAL ZONE 10,RunPeriod: RUN PERIOD 1,3.1893059656E-002,5.8524870388E-002,Pass,Pass,0.6934577062,5.6322776734,Pass,Pass
 Warmup Convergence Information,THERMAL ZONE 37,RunPeriod: RUN PERIOD 1,2.8532704785E-002,7.5394112987E-002,Pass,Pass,0.5271965194,3.0760591981,Pass,Pass
 Warmup Convergence Information,THERMAL ZONE 2,RunPeriod: RUN PERIOD 1,6.2243440495E-003,1.6009566843E-002,Pass,Pass,0.3143601579,1.2371430610,Pass,Pass
 Warmup Convergence Information,THERMAL ZONE 22,RunPeriod: RUN PERIOD 1,8.4289008714E-002,0.1251961557,Pass,Pass,8.5359537227E-002,0.1385825070,Pass,Pass
 Warmup Convergence Information,THERMAL ZONE 41,RunPeriod: RUN PERIOD 1,2.8840048772E-002,7.4994062520E-002,Pass,Pass,0.9814299279,5.4365044391,Pass,Pass
 Warmup Convergence Information,THERMAL ZONE 34,RunPeriod: RUN PERIOD 1,2.4082289915E-002,4.4730947865E-002,Pass,Pass,0.1188253181,0.2092814108,Pass,Pass
 Warmup Convergence Information,THERMAL ZONE 49,RunPeriod: RUN PERIOD 1,8.4396367196E-002,0.1250080693,Pass,Pass,8.5900660272E-002,0.1370153899,Pass,Pass
 Warmup Convergence Information,THERMAL ZONE 31,RunPeriod: RUN PERIOD 1,2.8570983973E-002,7.5364985652E-002,Pass,Pass,0.3651645204,1.3238024099,Pass,Pass
 Warmup Convergence Information,THERMAL ZONE 42,RunPeriod: RUN PERIOD 1,8.4804268301E-002,0.1523584716,Pass,Pass,0.2350657193,0.8300420860,Pass,Pass
 Warmup Convergence Information,THERMAL ZONE 40,RunPeriod: RUN PERIOD 1,5.6680460796E-003,1.3237431341E-002,Pass,Pass,0.3451775666,1.3992862262,Pass,Pass
 Warmup Convergence Information,THERMAL ZONE 47,RunPeriod: RUN PERIOD 1,4.1313446753E-002,6.0598263515E-002,Pass,Pass,0.4679451738,3.6664270324,Pass,Pass
 Warmup Convergence Information,THERMAL ZONE 36,RunPeriod: RUN PERIOD 1,8.4299216327E-002,0.1252548195,Pass,Pass,8.5107046637E-002,0.1391548308,Pass,Pass
 Warmup Convergence Information,THERMAL ZONE 19,RunPeriod: RUN PERIOD 1,2.4260703917E-002,4.5204912045E-002,Pass,Pass,0.1139234883,0.1999341710,Pass,Pass
 Warmup Convergence Information,THERMAL ZONE 43,RunPeriod: RUN PERIOD 1,6.1462061253E-003,1.4973318575E-002,Pass,Pass,0.2721524205,1.0271834431,Pass,Pass
 Warmup Convergence Information,THERMAL ZONE 12,RunPeriod: RUN PERIOD 1,6.5380025985E-003,1.6346179803E-002,Pass,Pass,0.2720932202,0.9716744020,Pass,Pass
 Warmup Convergence Information,THERMAL ZONE 25,RunPeriod: RUN PERIOD 1,8.4463707200E-002,0.1255427819,Pass,Pass,8.7884909059E-002,0.1564448545,Pass,Pass
 Warmup Convergence Information,THERMAL ZONE 33,RunPeriod: RUN PERIOD 1,2.8893410867E-002,7.5131336616E-002,Pass,Pass,0.5090494354,2.4894965765,Pass,Pass
 Warmup Convergence Information,THERMAL ZONE 3,RunPeriod: RUN PERIOD 1,1.4776715518E-002,2.9605408769E-002,Pass,Pass,1.0980513695,8.5255110729,Pass,Pass
 Warmup Convergence Information,THERMAL ZONE 21,RunPeriod: RUN PERIOD 1,2.4325270926E-002,4.5385378237E-002,Pass,Pass,0.1260885904,0.2295927048,Pass,Pass
 Warmup Convergence Information,THERMAL ZONE 20,RunPeriod: RUN PERIOD 1,2.3589988310E-002,4.2890211417E-002,Pass,Pass,0.1321638117,0.2504291644,Pass,Pass
 Warmup Convergence Information,THERMAL ZONE 15,RunPeriod: RUN PERIOD 1,2.8757609751E-002,7.5550620382E-002,Pass,Pass,0.2929921022,0.8199884509,Pass,Pass
 Warmup Convergence Information,THERMAL ZONE 4,RunPeriod: RUN PERIOD 1,2.4086211378E-002,4.4902353569E-002,Pass,Pass,0.1165794507,0.2042236861,Pass,Pass
 Warmup Convergence Information,THERMAL ZONE 30,RunPeriod: RUN PERIOD 1,5.8430427932E-003,1.4846215883E-002,Pass,Pass,0.7594178768,5.1524205459,Pass,Pass
 Warmup Convergence Information,THERMAL ZONE 18,RunPeriod: RUN PERIOD 1,2.7007076292E-002,5.2924210947E-002,Pass,Pass,2.9796466659,26.6330376982,Pass,Pass
 Warmup Convergence Information,THERMAL ZONE 46,RunPeriod: RUN PERIOD 1,2.8285156845E-002,7.4121574086E-002,Pass,Pass,0.3752371878,1.4894897876,Pass,Pass
 Warmup Convergence Information,THERMAL ZONE 16,RunPeriod: RUN PERIOD 1,8.4276853678E-002,0.1251564636,Pass,Pass,8.4999071058E-002,0.1366749137,Pass,Pass
 Warmup Convergence Information,THERMAL ZONE 38,RunPeriod: RUN PERIOD 1,6.0187961753E-003,1.5666793998E-002,Pass,Pass,0.3680650583,1.6402504861,Pass,Pass
 Warmup Convergence Information,THERMAL ZONE 23,RunPeriod: RUN PERIOD 1,2.8670371492E-002,7.5588662454E-002,Pass,Pass,0.3000712002,0.8795384881,Pass,Pass
 Warmup Convergence Information,THERMAL ZONE 13,RunPeriod: RUN PERIOD 1,4.1030165739E-002,6.0709686203E-002,Pass,Pass,0.2387378628,1.4127059333,Pass,Pass
 Warmup Convergence Information,THERMAL ZONE 48,RunPeriod: RUN PERIOD 1,8.4446950775E-002,0.1250311635,Pass,Pass,8.5761609416E-002,0.1379802753,Pass,Pass
 Warmup Convergence Information,THERMAL ZONE 50,RunPeriod: RUN PERIOD 1,3.3965118231E-002,9.0092480016E-002,Pass,Pass,0.2386561487,0.7616982271,Pass,Pass
! <Program Control Information:Threads/Parallel Sims>, Threading Supported,Maximum Number of Threads, Env Set Threads (OMP_NUM_THREADS), EP Env Set Threads (EP_OMP_NUM_THREADS), IDF Set Threads, Number of Threads Used (Interior Radiant Exchange), Number Nominal Surfaces, Number Parallel Sims
Program Control:Threads/Parallel Sims, Yes,1, Not Set, Not Set, 1, 1, 340, N/A
End of Data
