Program Version,EnergyPlus-Linux-OMP-32 7.2.0.006, YMD=2013.06.23 20:42
! <Version>, Version ID
 Version, 7.2
! <Timesteps per Hour>, #TimeSteps, Minutes per TimeStep {minutes}
 Timesteps per Hour,  4, 15
! <System Convergence Limits>, Minimum System TimeStep {minutes}, Max HVAC Iterations,  Minimum Plant Iterations, Maximum Plant Iterations
 System Convergence Limits, 1, 20, 2, 8
! <Simulation Control>, Do Zone Sizing, Do System Sizing, Do Plant Sizing, Do Design Days, Do Weather Simulation
 Simulation Control, Yes, Yes, Yes, Yes, Yes
! <Output Reporting Tolerances>, Tolerance for Time Heating Setpoint Not Met, Tolerance for Time Cooling Setpoint Not Met
 Output Reporting Tolerances, 0.200, 0.200, 
! <Site:GroundTemperature:BuildingSurface>, Months From Jan to Dec {Deg C}
 Site:GroundTemperature:BuildingSurface,  18.00,  18.00,  18.00,  18.00,  18.00,  18.00,  18.00,  18.00,  18.00,  18.00,  18.00,  18.00
! <Site:GroundTemperature:FCfactorMethod>, Months From Jan to Dec {Deg C}
 Site:GroundTemperature:FCfactorMethod,  10.86,  10.57,  11.08,  11.88,  13.97,  15.58,  16.67,  17.00,  16.44,  15.19,  13.51,  11.96
! <Site:GroundTemperature:Shallow>, Months From Jan to Dec {Deg C}
 Site:GroundTemperature:Shallow,  13.00,  13.00,  13.00,  13.00,  13.00,  13.00,  13.00,  13.00,  13.00,  13.00,  13.00,  13.00
! <Site:GroundTemperature:Deep>, Months From Jan to Dec {Deg C}
 Site:GroundTemperature:Deep,  16.00,  16.00,  16.00,  16.00,  16.00,  16.00,  16.00,  16.00,  16.00,  16.00,  16.00,  16.00
! <Site:GroundReflectance>, Months From Jan to Dec {dimensionless}
 Site:GroundReflectance,  0.20,  0.20,  0.20,  0.20,  0.20,  0.20,  0.20,  0.20,  0.20,  0.20,  0.20,  0.20
! <Site:GroundReflectance:SnowModifier>, Normal, Daylighting {dimensionless}
 Site:GroundReflectance:SnowModifier,   1.000,   1.000
! <Site:GroundReflectance:Snow>, Months From Jan to Dec {dimensionless}
 Site:GroundReflectance:Snow,  0.20,  0.20,  0.20,  0.20,  0.20,  0.20,  0.20,  0.20,  0.20,  0.20,  0.20,  0.20
! <Site:GroundReflectance:Snow:Daylighting>, Months From Jan to Dec {dimensionless}
 Site:GroundReflectance:Snow:Daylighting,  0.20,  0.20,  0.20,  0.20,  0.20,  0.20,  0.20,  0.20,  0.20,  0.20,  0.20,  0.20
! <Environment:Weather Station>,Wind Sensor Height Above Ground {m},Wind Speed Profile Exponent {},Wind Speed Profile Boundary Layer Thickness {m},Air Temperature Sensor Height Above Ground {m},Wind Speed Modifier Coefficient [Internal],Temperature Modifier Coefficient [Internal]
Environment:Weather Station,10.000,0.140,270.000,1.500,1.586,9.750E-003
! <Site:Location>, Location Name, Latitude {N+/S- Deg}, Longitude {E+/W- Deg},  Time Zone Number {GMT+/-}, Elevation {m},  Standard Pressure at Elevation {Pa}, Standard RhoAir at Elevation
Site:Location,San Francisco Intl Ap CA USA TMY3 WMO#=724940,37.62,-122.40,-8.00,2.00,101301,1.2040
! <Building Information>, Building Name,North Axis {deg},Terrain,  Loads Convergence Tolerance Value,Temperature Convergence Tolerance Value,  Solar Distribution,Maximum Number of Warmup Days,Minimum Number of Warmup Days
 Building Information,Building 1,0.000,Suburbs,4.00000E-002,0.40000,FullExterior,25,6
! <Inside Convection Algorithm>, Algorithm {Simple | TARP | CeilingDiffuser | AdaptiveConvectionAlgorithm}
Inside Convection Algorithm,TARP
! <Outside Convection Algorithm>, Algorithm {SimpleCombined | TARP | MoWitt | DOE-2 | AdaptiveConvectionAlgorithm}
Outside Convection Algorithm,DOE-2
! <Sky Radiance Distribution>, Value {Anisotropic}
Sky Radiance Distribution,Anisotropic
! <Zone Air Solution Algorithm>, Value {ThirdOrderBackwardDifference | AnalyticalSolution | EulerMethod}
 Zone Air Solution Algorithm, ThirdOrderBackwardDifference
! <Zone Air Contaminant Balance Simulation>, Simulation {Yes/No}, Carbon Dioxide Concentration
 Zone Air Carbon Dioxide Balance Simulation, No,N/A
! <Zone Air Contaminant Balance Simulation>, Simulation {Yes/No}, Generic Contaminant Concentration
 Zone Air Generic Contaminant Balance Simulation, No,N/A
! <Environment:Site Atmospheric Variation>,Wind Speed Profile Exponent {},Wind Speed Profile Boundary Layer Thickness {m},Air Temperature Gradient Coefficient {K/m}
Environment:Site Atmospheric Variation,0.220,370.000,6.500000E-003
! <SurfaceGeometry>,Starting Corner,Vertex Input Direction,Coordinate System,Daylight Reference Point Coordinate System,Rectangular (Simple) Surface Coordinate System
 Surface Geometry,UpperLeftCorner,Counterclockwise,RelativeCoordinateSystem,RelativeCoordinateSystem,RelativeToZoneOrigin
! <Surface Heat Transfer Algorithm>, Value {CTF - ConductionTransferFunction | EMPD - MoisturePenetrationDepthConductionTransferFunction | CondFD - ConductionFiniteDifference | HAMT - CombinedHeatAndMoistureFiniteElement} - Description,Inside Surface Max Temperature Limit{C}, Surface Convection Coefficient Lower Limit {W/m2-K}, Surface Convection Coefficient Upper Limit {W/m2-K}
Surface Heat Transfer Algorithm, CTF - ConductionTransferFunction,200,0.10,1000.0
! <Shading Summary>, Number of Fixed Detached Shades, Number of Building Detached Shades, Number of Attached Shades
 Shading Summary,0,0,0
! <Zone Summary>, Number of Zones, Number of Zone Surfaces, Number of SubSurfaces
 Zone Summary,25,170,20
! <Zone Information>,Zone Name,North Axis {deg},Origin X-Coordinate {m},Origin Y-Coordinate {m},Origin Z-Coordinate {m},Centroid X-Coordinate {m},Centroid Y-Coordinate {m},Centroid Z-Coordinate {m},Type,Zone Multiplier,Zone List Multiplier,Minimum X {m},Maximum X {m},Minimum Y {m},Maximum Y {m},Minimum Z {m},Maximum Z {m},Ceiling Height {m},Volume {m3},Zone Inside Convection Algorithm {Simple-Detailed-CeilingDiffuser-TrombeWall},Zone Outside Convection Algorithm {Simple-Detailed-Tarp-MoWitt-DOE-2-BLAST}, Floor Area {m2},Exterior Gross Wall Area {m2},Exterior Net Wall Area {m2},Exterior Window Area {m2}, Number of Surfaces, Number of SubSurfaces, Number of Shading SubSurfaces,  Part of Total Building Area
 Zone Information, THERMAL ZONE 25,0.0,0.00,0.00,4.00,14.14,1.38,6.00,1,1,1,0.00,28.28,0.00,3.00,4.00,8.00,4.00,303.37,TARP,DOE-2,75.84,113.12,81.45,31.67,6,1,0,Yes
 Zone Information, THERMAL ZONE 16,0.0,0.00,0.00,12.00,14.14,1.38,14.00,1,1,1,0.00,28.28,0.00,3.00,12.00,16.00,4.00,303.37,TARP,DOE-2,75.84,113.12,81.45,31.67,6,1,0,Yes
 Zone Information, THERMAL ZONE 6,0.0,3.00,25.28,16.00,14.14,26.90,18.00,1,1,1,0.00,28.28,25.28,28.28,16.00,20.00,4.00,303.37,TARP,DOE-2,75.84,113.12,81.45,31.67,6,1,0,Yes
 Zone Information, THERMAL ZONE 9,0.0,0.00,0.00,8.00,14.14,1.38,10.00,1,1,1,0.00,28.28,0.00,3.00,8.00,12.00,4.00,303.37,TARP,DOE-2,75.84,113.12,81.45,31.67,6,1,0,Yes
 Zone Information, THERMAL ZONE 8,0.0,3.00,3.00,12.00,14.14,14.14,14.00,1,1,1,3.00,25.28,3.00,25.28,12.00,16.00,4.00,1985.72,TARP,DOE-2,496.43,0.00,0.00,0.00,6,0,0,Yes
 Zone Information, THERMAL ZONE 2,0.0,3.00,25.28,0.00,14.14,26.90,2.00,1,1,1,0.00,28.28,25.28,28.28,0.00,4.00,4.00,303.37,TARP,DOE-2,75.84,113.12,81.45,31.67,6,1,0,Yes
 Zone Information, THERMAL ZONE 22,0.0,0.00,0.00,0.00,14.14,1.38,2.00,1,1,1,0.00,28.28,0.00,3.00,0.00,4.00,4.00,303.37,TARP,DOE-2,75.84,113.12,81.45,31.67,6,1,0,Yes
 Zone Information, THERMAL ZONE 13,0.0,0.00,0.00,16.00,14.14,1.38,18.00,1,1,1,0.00,28.28,0.00,3.00,16.00,20.00,4.00,303.37,TARP,DOE-2,75.84,113.12,81.45,31.67,6,1,0,Yes
 Zone Information, THERMAL ZONE 20,0.0,25.28,3.00,16.00,26.90,14.14,18.00,1,1,1,25.28,28.28,0.00,28.28,16.00,20.00,4.00,303.37,TARP,DOE-2,75.84,113.12,81.45,31.67,6,1,0,Yes
 Zone Information, THERMAL ZONE 3,0.0,3.00,25.28,8.00,14.14,26.90,10.00,1,1,1,0.00,28.28,25.28,28.28,8.00,12.00,4.00,303.37,TARP,DOE-2,75.84,113.12,81.45,31.67,6,1,0,Yes
 Zone Information, THERMAL ZONE 4,0.0,25.28,3.00,4.00,26.90,14.14,6.00,1,1,1,25.28,28.28,0.00,28.28,4.00,8.00,4.00,303.37,TARP,DOE-2,75.84,113.12,81.45,31.67,6,1,0,Yes
 Zone Information, THERMAL ZONE 21,0.0,3.00,3.00,0.00,14.14,14.14,2.00,1,1,1,3.00,25.28,3.00,25.28,0.00,4.00,4.00,1985.72,TARP,DOE-2,496.43,0.00,0.00,0.00,6,0,0,Yes
 Zone Information, THERMAL ZONE 23,0.0,0.00,0.00,0.00,1.38,14.14,2.00,1,1,1,0.00,3.00,0.00,28.28,0.00,4.00,4.00,303.37,TARP,DOE-2,75.84,113.12,81.45,31.67,6,1,0,Yes
 Zone Information, THERMAL ZONE 1,0.0,25.28,3.00,0.00,26.90,14.14,2.00,1,1,1,25.28,28.28,0.00,28.28,0.00,4.00,4.00,303.37,TARP,DOE-2,75.84,113.12,81.45,31.67,6,1,0,Yes
 Zone Information, THERMAL ZONE 7,0.0,25.28,3.00,12.00,26.90,14.14,14.00,1,1,1,25.28,28.28,0.00,28.28,12.00,16.00,4.00,303.37,TARP,DOE-2,75.84,113.12,81.45,31.67,6,1,0,Yes
 Zone Information, THERMAL ZONE 10,0.0,3.00,3.00,4.00,14.14,14.14,6.00,1,1,1,3.00,25.28,3.00,25.28,4.00,8.00,4.00,1985.72,TARP,DOE-2,496.43,0.00,0.00,0.00,6,0,0,Yes
 Zone Information, THERMAL ZONE 18,0.0,25.28,3.00,8.00,26.90,14.14,10.00,1,1,1,25.28,28.28,0.00,28.28,8.00,12.00,4.00,303.37,TARP,DOE-2,75.84,113.12,81.45,31.67,6,1,0,Yes
 Zone Information, THERMAL ZONE 17,0.0,0.00,0.00,8.00,1.38,14.14,10.00,1,1,1,0.00,3.00,0.00,28.28,8.00,12.00,4.00,303.37,TARP,DOE-2,75.84,113.12,81.45,31.67,6,1,0,Yes
 Zone Information, THERMAL ZONE 19,0.0,0.00,0.00,16.00,1.38,14.14,18.00,1,1,1,0.00,3.00,0.00,28.28,16.00,20.00,4.00,303.37,TARP,DOE-2,75.84,113.12,81.45,31.67,6,1,0,Yes
 Zone Information, THERMAL ZONE 11,0.0,3.00,3.00,8.00,14.14,14.14,10.00,1,1,1,3.00,25.28,3.00,25.28,8.00,12.00,4.00,1985.72,TARP,DOE-2,496.43,0.00,0.00,0.00,6,0,0,Yes
 Zone Information, THERMAL ZONE 14,0.0,3.00,25.28,4.00,14.14,26.90,6.00,1,1,1,0.00,28.28,25.28,28.28,4.00,8.00,4.00,303.37,TARP,DOE-2,75.84,113.12,81.45,31.67,6,1,0,Yes
 Zone Information, THERMAL ZONE 12,0.0,0.00,0.00,4.00,1.38,14.14,6.00,1,1,1,0.00,3.00,0.00,28.28,4.00,8.00,4.00,303.37,TARP,DOE-2,75.84,113.12,81.45,31.67,6,1,0,Yes
 Zone Information, THERMAL ZONE 15,0.0,0.00,0.00,12.00,1.38,14.14,14.00,1,1,1,0.00,3.00,0.00,28.28,12.00,16.00,4.00,303.37,TARP,DOE-2,75.84,113.12,81.45,31.67,6,1,0,Yes
 Zone Information, THERMAL ZONE 5,0.0,3.00,3.00,16.00,14.14,14.14,18.00,1,1,1,3.00,25.28,3.00,25.28,16.00,20.00,4.00,1985.72,TARP,DOE-2,496.43,0.00,0.00,0.00,6,0,0,Yes
 Zone Information, THERMAL ZONE 24,0.0,3.00,25.28,12.00,14.14,26.90,14.00,1,1,1,0.00,28.28,25.28,28.28,12.00,16.00,4.00,303.37,TARP,DOE-2,75.84,113.12,81.45,31.67,6,1,0,Yes
! <Zone Internal Gains/Equipment Information - Nominal>,Zone Name, Floor Area {m2},# Occupants,Area per Occupant {m2/person},Occupant per Area {person/m2},Interior Lighting {W/m2},Electric Load {W/m2},Gas Load {W/m2},Other Load {W/m2},Hot Water Eq {W/m2},Steam Equipment {W/m2},Sum Loads per Area {W/m2},Outdoor Controlled Baseboard Heat
 Zone Internal Gains, THERMAL ZONE 25,75.84,4.1,18.581,5.382E-002,10.764,10.764,0.000,0.000,0.000,0.000,21.528,No
 Zone Internal Gains, THERMAL ZONE 16,75.84,4.1,18.581,5.382E-002,10.764,10.764,0.000,0.000,0.000,0.000,21.528,No
 Zone Internal Gains, THERMAL ZONE 6,75.84,4.1,18.581,5.382E-002,10.764,10.764,0.000,0.000,0.000,0.000,21.528,No
 Zone Internal Gains, THERMAL ZONE 9,75.84,4.1,18.581,5.382E-002,10.764,10.764,0.000,0.000,0.000,0.000,21.528,No
 Zone Internal Gains, THERMAL ZONE 8,496.43,26.7,18.581,5.382E-002,10.764,10.764,0.000,0.000,0.000,0.000,21.528,No
 Zone Internal Gains, THERMAL ZONE 2,75.84,4.1,18.581,5.382E-002,10.764,10.764,0.000,0.000,0.000,0.000,21.528,No
 Zone Internal Gains, THERMAL ZONE 22,75.84,4.1,18.581,5.382E-002,10.764,10.764,0.000,0.000,0.000,0.000,21.528,No
 Zone Internal Gains, THERMAL ZONE 13,75.84,4.1,18.581,5.382E-002,10.764,10.764,0.000,0.000,0.000,0.000,21.528,No
 Zone Internal Gains, THERMAL ZONE 20,75.84,4.1,18.581,5.382E-002,10.764,10.764,0.000,0.000,0.000,0.000,21.528,No
 Zone Internal Gains, THERMAL ZONE 3,75.84,4.1,18.581,5.382E-002,10.764,10.764,0.000,0.000,0.000,0.000,21.528,No
 Zone Internal Gains, THERMAL ZONE 4,75.84,4.1,18.581,5.382E-002,10.764,10.764,0.000,0.000,0.000,0.000,21.528,No
 Zone Internal Gains, THERMAL ZONE 21,496.43,26.7,18.581,5.382E-002,10.764,10.764,0.000,0.000,0.000,0.000,21.528,No
 Zone Internal Gains, THERMAL ZONE 23,75.84,4.1,18.581,5.382E-002,10.764,10.764,0.000,0.000,0.000,0.000,21.528,No
 Zone Internal Gains, THERMAL ZONE 1,75.84,4.1,18.581,5.382E-002,10.764,10.764,0.000,0.000,0.000,0.000,21.528,No
 Zone Internal Gains, THERMAL ZONE 7,75.84,4.1,18.581,5.382E-002,10.764,10.764,0.000,0.000,0.000,0.000,21.528,No
 Zone Internal Gains, THERMAL ZONE 10,496.43,26.7,18.581,5.382E-002,10.764,10.764,0.000,0.000,0.000,0.000,21.528,No
 Zone Internal Gains, THERMAL ZONE 18,75.84,4.1,18.581,5.382E-002,10.764,10.764,0.000,0.000,0.000,0.000,21.528,No
 Zone Internal Gains, THERMAL ZONE 17,75.84,4.1,18.581,5.382E-002,10.764,10.764,0.000,0.000,0.000,0.000,21.528,No
 Zone Internal Gains, THERMAL ZONE 19,75.84,4.1,18.581,5.382E-002,10.764,10.764,0.000,0.000,0.000,0.000,21.528,No
 Zone Internal Gains, THERMAL ZONE 11,496.43,26.7,18.581,5.382E-002,10.764,10.764,0.000,0.000,0.000,0.000,21.528,No
 Zone Internal Gains, THERMAL ZONE 14,75.84,4.1,18.581,5.382E-002,10.764,10.764,0.000,0.000,0.000,0.000,21.528,No
 Zone Internal Gains, THERMAL ZONE 12,75.84,4.1,18.581,5.382E-002,10.764,10.764,0.000,0.000,0.000,0.000,21.528,No
 Zone Internal Gains, THERMAL ZONE 15,75.84,4.1,18.581,5.382E-002,10.764,10.764,0.000,0.000,0.000,0.000,21.528,No
 Zone Internal Gains, THERMAL ZONE 5,496.43,26.7,18.581,5.382E-002,10.764,10.764,0.000,0.000,0.000,0.000,21.528,No
 Zone Internal Gains, THERMAL ZONE 24,75.84,4.1,18.581,5.382E-002,10.764,10.764,0.000,0.000,0.000,0.000,21.528,No
! <People Internal Gains - Nominal>,Name,Schedule Name,Zone Name,Zone Floor Area {m2},# Zone Occupants,Number of People {},People/Floor Area {person/m2},Floor Area per person {m2/person},Fraction Radiant,Fraction Convected,Sensible Fraction Calculation,Activity level,ASHRAE 55 Warnings,Carbon Dioxide Generation Rate 
 People Internal Gains, THERMAL ZONE 1 ASHRAE_90.1-2004 CLIMATEZONE 1-8 MEDIUMOFFICE WHOLEBUILDING PEOPLE,MEDIUM OFFICE_BLDG_OCC,THERMAL ZONE 1,75.84,4.1,4.1,5.382E-002,18.581,0.300,0.700,AutoCalculate,MEDIUM OFFICE_ACTIVITY,No,3.8200E-008
 People Internal Gains, THERMAL ZONE 10 ASHRAE_90.1-2004 CLIMATEZONE 1-8 MEDIUMOFFICE WHOLEBUILDING PEOPLE,MEDIUM OFFICE_BLDG_OCC,THERMAL ZONE 10,496.43,26.7,26.7,5.382E-002,18.581,0.300,0.700,AutoCalculate,MEDIUM OFFICE_ACTIVITY,No,3.8200E-008
 People Internal Gains, THERMAL ZONE 11 ASHRAE_90.1-2004 CLIMATEZONE 1-8 MEDIUMOFFICE WHOLEBUILDING PEOPLE,MEDIUM OFFICE_BLDG_OCC,THERMAL ZONE 11,496.43,26.7,26.7,5.382E-002,18.581,0.300,0.700,AutoCalculate,MEDIUM OFFICE_ACTIVITY,No,3.8200E-008
 People Internal Gains, THERMAL ZONE 12 ASHRAE_90.1-2004 CLIMATEZONE 1-8 MEDIUMOFFICE WHOLEBUILDING PEOPLE,MEDIUM OFFICE_BLDG_OCC,THERMAL ZONE 12,75.84,4.1,4.1,5.382E-002,18.581,0.300,0.700,AutoCalculate,MEDIUM OFFICE_ACTIVITY,No,3.8200E-008
 People Internal Gains, THERMAL ZONE 13 ASHRAE_90.1-2004 CLIMATEZONE 1-8 MEDIUMOFFICE WHOLEBUILDING PEOPLE,MEDIUM OFFICE_BLDG_OCC,THERMAL ZONE 13,75.84,4.1,4.1,5.382E-002,18.581,0.300,0.700,AutoCalculate,MEDIUM OFFICE_ACTIVITY,No,3.8200E-008
 People Internal Gains, THERMAL ZONE 14 ASHRAE_90.1-2004 CLIMATEZONE 1-8 MEDIUMOFFICE WHOLEBUILDING PEOPLE,MEDIUM OFFICE_BLDG_OCC,THERMAL ZONE 14,75.84,4.1,4.1,5.382E-002,18.581,0.300,0.700,AutoCalculate,MEDIUM OFFICE_ACTIVITY,No,3.8200E-008
 People Internal Gains, THERMAL ZONE 15 ASHRAE_90.1-2004 CLIMATEZONE 1-8 MEDIUMOFFICE WHOLEBUILDING PEOPLE,MEDIUM OFFICE_BLDG_OCC,THERMAL ZONE 15,75.84,4.1,4.1,5.382E-002,18.581,0.300,0.700,AutoCalculate,MEDIUM OFFICE_ACTIVITY,No,3.8200E-008
 People Internal Gains, THERMAL ZONE 16 ASHRAE_90.1-2004 CLIMATEZONE 1-8 MEDIUMOFFICE WHOLEBUILDING PEOPLE,MEDIUM OFFICE_BLDG_OCC,THERMAL ZONE 16,75.84,4.1,4.1,5.382E-002,18.581,0.300,0.700,AutoCalculate,MEDIUM OFFICE_ACTIVITY,No,3.8200E-008
 People Internal Gains, THERMAL ZONE 17 ASHRAE_90.1-2004 CLIMATEZONE 1-8 MEDIUMOFFICE WHOLEBUILDING PEOPLE,MEDIUM OFFICE_BLDG_OCC,THERMAL ZONE 17,75.84,4.1,4.1,5.382E-002,18.581,0.300,0.700,AutoCalculate,MEDIUM OFFICE_ACTIVITY,No,3.8200E-008
 People Internal Gains, THERMAL ZONE 18 ASHRAE_90.1-2004 CLIMATEZONE 1-8 MEDIUMOFFICE WHOLEBUILDING PEOPLE,MEDIUM OFFICE_BLDG_OCC,THERMAL ZONE 18,75.84,4.1,4.1,5.382E-002,18.581,0.300,0.700,AutoCalculate,MEDIUM OFFICE_ACTIVITY,No,3.8200E-008
 People Internal Gains, THERMAL ZONE 19 ASHRAE_90.1-2004 CLIMATEZONE 1-8 MEDIUMOFFICE WHOLEBUILDING PEOPLE,MEDIUM OFFICE_BLDG_OCC,THERMAL ZONE 19,75.84,4.1,4.1,5.382E-002,18.581,0.300,0.700,AutoCalculate,MEDIUM OFFICE_ACTIVITY,No,3.8200E-008
 People Internal Gains, THERMAL ZONE 2 ASHRAE_90.1-2004 CLIMATEZONE 1-8 MEDIUMOFFICE WHOLEBUILDING PEOPLE,MEDIUM OFFICE_BLDG_OCC,THERMAL ZONE 2,75.84,4.1,4.1,5.382E-002,18.581,0.300,0.700,AutoCalculate,MEDIUM OFFICE_ACTIVITY,No,3.8200E-008
 People Internal Gains, THERMAL ZONE 20 ASHRAE_90.1-2004 CLIMATEZONE 1-8 MEDIUMOFFICE WHOLEBUILDING PEOPLE,MEDIUM OFFICE_BLDG_OCC,THERMAL ZONE 20,75.84,4.1,4.1,5.382E-002,18.581,0.300,0.700,AutoCalculate,MEDIUM OFFICE_ACTIVITY,No,3.8200E-008
 People Internal Gains, THERMAL ZONE 21 ASHRAE_90.1-2004 CLIMATEZONE 1-8 MEDIUMOFFICE WHOLEBUILDING PEOPLE,MEDIUM OFFICE_BLDG_OCC,THERMAL ZONE 21,496.43,26.7,26.7,5.382E-002,18.581,0.300,0.700,AutoCalculate,MEDIUM OFFICE_ACTIVITY,No,3.8200E-008
 People Internal Gains, THERMAL ZONE 22 ASHRAE_90.1-2004 CLIMATEZONE 1-8 MEDIUMOFFICE WHOLEBUILDING PEOPLE,MEDIUM OFFICE_BLDG_OCC,THERMAL ZONE 22,75.84,4.1,4.1,5.382E-002,18.581,0.300,0.700,AutoCalculate,MEDIUM OFFICE_ACTIVITY,No,3.8200E-008
 People Internal Gains, THERMAL ZONE 23 ASHRAE_90.1-2004 CLIMATEZONE 1-8 MEDIUMOFFICE WHOLEBUILDING PEOPLE,MEDIUM OFFICE_BLDG_OCC,THERMAL ZONE 23,75.84,4.1,4.1,5.382E-002,18.581,0.300,0.700,AutoCalculate,MEDIUM OFFICE_ACTIVITY,No,3.8200E-008
 People Internal Gains, THERMAL ZONE 24 ASHRAE_90.1-2004 CLIMATEZONE 1-8 MEDIUMOFFICE WHOLEBUILDING PEOPLE,MEDIUM OFFICE_BLDG_OCC,THERMAL ZONE 24,75.84,4.1,4.1,5.382E-002,18.581,0.300,0.700,AutoCalculate,MEDIUM OFFICE_ACTIVITY,No,3.8200E-008
 People Internal Gains, THERMAL ZONE 25 ASHRAE_90.1-2004 CLIMATEZONE 1-8 MEDIUMOFFICE WHOLEBUILDING PEOPLE,MEDIUM OFFICE_BLDG_OCC,THERMAL ZONE 25,75.84,4.1,4.1,5.382E-002,18.581,0.300,0.700,AutoCalculate,MEDIUM OFFICE_ACTIVITY,No,3.8200E-008
 People Internal Gains, THERMAL ZONE 3 ASHRAE_90.1-2004 CLIMATEZONE 1-8 MEDIUMOFFICE WHOLEBUILDING PEOPLE,MEDIUM OFFICE_BLDG_OCC,THERMAL ZONE 3,75.84,4.1,4.1,5.382E-002,18.581,0.300,0.700,AutoCalculate,MEDIUM OFFICE_ACTIVITY,No,3.8200E-008
 People Internal Gains, THERMAL ZONE 4 ASHRAE_90.1-2004 CLIMATEZONE 1-8 MEDIUMOFFICE WHOLEBUILDING PEOPLE,MEDIUM OFFICE_BLDG_OCC,THERMAL ZONE 4,75.84,4.1,4.1,5.382E-002,18.581,0.300,0.700,AutoCalculate,MEDIUM OFFICE_ACTIVITY,No,3.8200E-008
 People Internal Gains, THERMAL ZONE 5 ASHRAE_90.1-2004 CLIMATEZONE 1-8 MEDIUMOFFICE WHOLEBUILDING PEOPLE,MEDIUM OFFICE_BLDG_OCC,THERMAL ZONE 5,496.43,26.7,26.7,5.382E-002,18.581,0.300,0.700,AutoCalculate,MEDIUM OFFICE_ACTIVITY,No,3.8200E-008
 People Internal Gains, THERMAL ZONE 6 ASHRAE_90.1-2004 CLIMATEZONE 1-8 MEDIUMOFFICE WHOLEBUILDING PEOPLE,MEDIUM OFFICE_BLDG_OCC,THERMAL ZONE 6,75.84,4.1,4.1,5.382E-002,18.581,0.300,0.700,AutoCalculate,MEDIUM OFFICE_ACTIVITY,No,3.8200E-008
 People Internal Gains, THERMAL ZONE 7 ASHRAE_90.1-2004 CLIMATEZONE 1-8 MEDIUMOFFICE WHOLEBUILDING PEOPLE,MEDIUM OFFICE_BLDG_OCC,THERMAL ZONE 7,75.84,4.1,4.1,5.382E-002,18.581,0.300,0.700,AutoCalculate,MEDIUM OFFICE_ACTIVITY,No,3.8200E-008
 People Internal Gains, THERMAL ZONE 8 ASHRAE_90.1-2004 CLIMATEZONE 1-8 MEDIUMOFFICE WHOLEBUILDING PEOPLE,MEDIUM OFFICE_BLDG_OCC,THERMAL ZONE 8,496.43,26.7,26.7,5.382E-002,18.581,0.300,0.700,AutoCalculate,MEDIUM OFFICE_ACTIVITY,No,3.8200E-008
 People Internal Gains, THERMAL ZONE 9 ASHRAE_90.1-2004 CLIMATEZONE 1-8 MEDIUMOFFICE WHOLEBUILDING PEOPLE,MEDIUM OFFICE_BLDG_OCC,THERMAL ZONE 9,75.84,4.1,4.1,5.382E-002,18.581,0.300,0.700,AutoCalculate,MEDIUM OFFICE_ACTIVITY,No,3.8200E-008
! <Lights Internal Gains - Nominal>,Name,Schedule Name,Zone Name,Zone Floor Area {m2},# Zone Occupants,Lighting Level {W},Lights/Floor Area {W/m2},Lights per person {W/person},Fraction Return Air,Fraction Radiant,Fraction Short Wave,Fraction Convected,Fraction Replaceable,EndUse Category
 Lights Internal Gains, THERMAL ZONE 1 ASHRAE_90.1-2004 CLIMATEZONE 1-8 MEDIUMOFFICE WHOLEBUILDING LIGHTS,MEDIUM OFFICE_BLDG_LIGHT,THERMAL ZONE 1,75.84,4.1,816.359,10.764,200.000,0.000,0.000,0.000,1.000,1.000,General
 Lights Internal Gains, THERMAL ZONE 10 ASHRAE_90.1-2004 CLIMATEZONE 1-8 MEDIUMOFFICE WHOLEBUILDING LIGHTS,MEDIUM OFFICE_BLDG_LIGHT,THERMAL ZONE 10,496.43,26.7,5343.541,10.764,200.000,0.000,0.000,0.000,1.000,1.000,General
 Lights Internal Gains, THERMAL ZONE 11 ASHRAE_90.1-2004 CLIMATEZONE 1-8 MEDIUMOFFICE WHOLEBUILDING LIGHTS,MEDIUM OFFICE_BLDG_LIGHT,THERMAL ZONE 11,496.43,26.7,5343.541,10.764,200.000,0.000,0.000,0.000,1.000,1.000,General
 Lights Internal Gains, THERMAL ZONE 12 ASHRAE_90.1-2004 CLIMATEZONE 1-8 MEDIUMOFFICE WHOLEBUILDING LIGHTS,MEDIUM OFFICE_BLDG_LIGHT,THERMAL ZONE 12,75.84,4.1,816.359,10.764,200.000,0.000,0.000,0.000,1.000,1.000,General
 Lights Internal Gains, THERMAL ZONE 13 ASHRAE_90.1-2004 CLIMATEZONE 1-8 MEDIUMOFFICE WHOLEBUILDING LIGHTS,MEDIUM OFFICE_BLDG_LIGHT,THERMAL ZONE 13,75.84,4.1,816.359,10.764,200.000,0.000,0.000,0.000,1.000,1.000,General
 Lights Internal Gains, THERMAL ZONE 14 ASHRAE_90.1-2004 CLIMATEZONE 1-8 MEDIUMOFFICE WHOLEBUILDING LIGHTS,MEDIUM OFFICE_BLDG_LIGHT,THERMAL ZONE 14,75.84,4.1,816.359,10.764,200.000,0.000,0.000,0.000,1.000,1.000,General
 Lights Internal Gains, THERMAL ZONE 15 ASHRAE_90.1-2004 CLIMATEZONE 1-8 MEDIUMOFFICE WHOLEBUILDING LIGHTS,MEDIUM OFFICE_BLDG_LIGHT,THERMAL ZONE 15,75.84,4.1,816.359,10.764,200.000,0.000,0.000,0.000,1.000,1.000,General
 Lights Internal Gains, THERMAL ZONE 16 ASHRAE_90.1-2004 CLIMATEZONE 1-8 MEDIUMOFFICE WHOLEBUILDING LIGHTS,MEDIUM OFFICE_BLDG_LIGHT,THERMAL ZONE 16,75.84,4.1,816.359,10.764,200.000,0.000,0.000,0.000,1.000,1.000,General
 Lights Internal Gains, THERMAL ZONE 17 ASHRAE_90.1-2004 CLIMATEZONE 1-8 MEDIUMOFFICE WHOLEBUILDING LIGHTS,MEDIUM OFFICE_BLDG_LIGHT,THERMAL ZONE 17,75.84,4.1,816.359,10.764,200.000,0.000,0.000,0.000,1.000,1.000,General
 Lights Internal Gains, THERMAL ZONE 18 ASHRAE_90.1-2004 CLIMATEZONE 1-8 MEDIUMOFFICE WHOLEBUILDING LIGHTS,MEDIUM OFFICE_BLDG_LIGHT,THERMAL ZONE 18,75.84,4.1,816.359,10.764,200.000,0.000,0.000,0.000,1.000,1.000,General
 Lights Internal Gains, THERMAL ZONE 19 ASHRAE_90.1-2004 CLIMATEZONE 1-8 MEDIUMOFFICE WHOLEBUILDING LIGHTS,MEDIUM OFFICE_BLDG_LIGHT,THERMAL ZONE 19,75.84,4.1,816.359,10.764,200.000,0.000,0.000,0.000,1.000,1.000,General
 Lights Internal Gains, THERMAL ZONE 2 ASHRAE_90.1-2004 CLIMATEZONE 1-8 MEDIUMOFFICE WHOLEBUILDING LIGHTS,MEDIUM OFFICE_BLDG_LIGHT,THERMAL ZONE 2,75.84,4.1,816.359,10.764,200.000,0.000,0.000,0.000,1.000,1.000,General
 Lights Internal Gains, THERMAL ZONE 20 ASHRAE_90.1-2004 CLIMATEZONE 1-8 MEDIUMOFFICE WHOLEBUILDING LIGHTS,MEDIUM OFFICE_BLDG_LIGHT,THERMAL ZONE 20,75.84,4.1,816.359,10.764,200.000,0.000,0.000,0.000,1.000,1.000,General
 Lights Internal Gains, THERMAL ZONE 21 ASHRAE_90.1-2004 CLIMATEZONE 1-8 MEDIUMOFFICE WHOLEBUILDING LIGHTS,MEDIUM OFFICE_BLDG_LIGHT,THERMAL ZONE 21,496.43,26.7,5343.541,10.764,200.000,0.000,0.000,0.000,1.000,1.000,General
 Lights Internal Gains, THERMAL ZONE 22 ASHRAE_90.1-2004 CLIMATEZONE 1-8 MEDIUMOFFICE WHOLEBUILDING LIGHTS,MEDIUM OFFICE_BLDG_LIGHT,THERMAL ZONE 22,75.84,4.1,816.359,10.764,200.000,0.000,0.000,0.000,1.000,1.000,General
 Lights Internal Gains, THERMAL ZONE 23 ASHRAE_90.1-2004 CLIMATEZONE 1-8 MEDIUMOFFICE WHOLEBUILDING LIGHTS,MEDIUM OFFICE_BLDG_LIGHT,THERMAL ZONE 23,75.84,4.1,816.359,10.764,200.000,0.000,0.000,0.000,1.000,1.000,General
 Lights Internal Gains, THERMAL ZONE 24 ASHRAE_90.1-2004 CLIMATEZONE 1-8 MEDIUMOFFICE WHOLEBUILDING LIGHTS,MEDIUM OFFICE_BLDG_LIGHT,THERMAL ZONE 24,75.84,4.1,816.359,10.764,200.000,0.000,0.000,0.000,1.000,1.000,General
 Lights Internal Gains, THERMAL ZONE 25 ASHRAE_90.1-2004 CLIMATEZONE 1-8 MEDIUMOFFICE WHOLEBUILDING LIGHTS,MEDIUM OFFICE_BLDG_LIGHT,THERMAL ZONE 25,75.84,4.1,816.359,10.764,200.000,0.000,0.000,0.000,1.000,1.000,General
 Lights Internal Gains, THERMAL ZONE 3 ASHRAE_90.1-2004 CLIMATEZONE 1-8 MEDIUMOFFICE WHOLEBUILDING LIGHTS,MEDIUM OFFICE_BLDG_LIGHT,THERMAL ZONE 3,75.84,4.1,816.359,10.764,200.000,0.000,0.000,0.000,1.000,1.000,General
 Lights Internal Gains, THERMAL ZONE 4 ASHRAE_90.1-2004 CLIMATEZONE 1-8 MEDIUMOFFICE WHOLEBUILDING LIGHTS,MEDIUM OFFICE_BLDG_LIGHT,THERMAL ZONE 4,75.84,4.1,816.359,10.764,200.000,0.000,0.000,0.000,1.000,1.000,General
 Lights Internal Gains, THERMAL ZONE 5 ASHRAE_90.1-2004 CLIMATEZONE 1-8 MEDIUMOFFICE WHOLEBUILDING LIGHTS,MEDIUM OFFICE_BLDG_LIGHT,THERMAL ZONE 5,496.43,26.7,5343.541,10.764,200.000,0.000,0.000,0.000,1.000,1.000,General
 Lights Internal Gains, THERMAL ZONE 6 ASHRAE_90.1-2004 CLIMATEZONE 1-8 MEDIUMOFFICE WHOLEBUILDING LIGHTS,MEDIUM OFFICE_BLDG_LIGHT,THERMAL ZONE 6,75.84,4.1,816.359,10.764,200.000,0.000,0.000,0.000,1.000,1.000,General
 Lights Internal Gains, THERMAL ZONE 7 ASHRAE_90.1-2004 CLIMATEZONE 1-8 MEDIUMOFFICE WHOLEBUILDING LIGHTS,MEDIUM OFFICE_BLDG_LIGHT,THERMAL ZONE 7,75.84,4.1,816.359,10.764,200.000,0.000,0.000,0.000,1.000,1.000,General
 Lights Internal Gains, THERMAL ZONE 8 ASHRAE_90.1-2004 CLIMATEZONE 1-8 MEDIUMOFFICE WHOLEBUILDING LIGHTS,MEDIUM OFFICE_BLDG_LIGHT,THERMAL ZONE 8,496.43,26.7,5343.541,10.764,200.000,0.000,0.000,0.000,1.000,1.000,General
 Lights Internal Gains, THERMAL ZONE 9 ASHRAE_90.1-2004 CLIMATEZONE 1-8 MEDIUMOFFICE WHOLEBUILDING LIGHTS,MEDIUM OFFICE_BLDG_LIGHT,THERMAL ZONE 9,75.84,4.1,816.359,10.764,200.000,0.000,0.000,0.000,1.000,1.000,General
! <ElectricEquipment Internal Gains - Nominal>,Name,Schedule Name,Zone Name,Zone Floor Area {m2},# Zone Occupants,Equipment Level {W},Equipment/Floor Area {W/m2},Equipment per person {W/person},Fraction Latent,Fraction Radiant,Fraction Lost,Fraction Convected,EndUse SubCategory
 ElectricEquipment Internal Gains, THERMAL ZONE 1 ASHRAE_90.1-2004 CLIMATEZONE 1-8 MEDIUMOFFICE WHOLEBUILDING ELECTRIC EQUIPMENT,MEDIUM OFFICE_BLDG_EQUIP,THERMAL ZONE 1,75.84,4.1,816.359,10.764,200.000,0.000,0.000,0.000,1.000,General
 ElectricEquipment Internal Gains, THERMAL ZONE 10 ASHRAE_90.1-2004 CLIMATEZONE 1-8 MEDIUMOFFICE WHOLEBUILDING ELECTRIC EQUIPMENT,MEDIUM OFFICE_BLDG_EQUIP,THERMAL ZONE 10,496.43,26.7,5343.541,10.764,200.000,0.000,0.000,0.000,1.000,General
 ElectricEquipment Internal Gains, THERMAL ZONE 11 ASHRAE_90.1-2004 CLIMATEZONE 1-8 MEDIUMOFFICE WHOLEBUILDING ELECTRIC EQUIPMENT,MEDIUM OFFICE_BLDG_EQUIP,THERMAL ZONE 11,496.43,26.7,5343.541,10.764,200.000,0.000,0.000,0.000,1.000,General
 ElectricEquipment Internal Gains, THERMAL ZONE 12 ASHRAE_90.1-2004 CLIMATEZONE 1-8 MEDIUMOFFICE WHOLEBUILDING ELECTRIC EQUIPMENT,MEDIUM OFFICE_BLDG_EQUIP,THERMAL ZONE 12,75.84,4.1,816.359,10.764,200.000,0.000,0.000,0.000,1.000,General
 ElectricEquipment Internal Gains, THERMAL ZONE 13 ASHRAE_90.1-2004 CLIMATEZONE 1-8 MEDIUMOFFICE WHOLEBUILDING ELECTRIC EQUIPMENT,MEDIUM OFFICE_BLDG_EQUIP,THERMAL ZONE 13,75.84,4.1,816.359,10.764,200.000,0.000,0.000,0.000,1.000,General
 ElectricEquipment Internal Gains, THERMAL ZONE 14 ASHRAE_90.1-2004 CLIMATEZONE 1-8 MEDIUMOFFICE WHOLEBUILDING ELECTRIC EQUIPMENT,MEDIUM OFFICE_BLDG_EQUIP,THERMAL ZONE 14,75.84,4.1,816.359,10.764,200.000,0.000,0.000,0.000,1.000,General
 ElectricEquipment Internal Gains, THERMAL ZONE 15 ASHRAE_90.1-2004 CLIMATEZONE 1-8 MEDIUMOFFICE WHOLEBUILDING ELECTRIC EQUIPMENT,MEDIUM OFFICE_BLDG_EQUIP,THERMAL ZONE 15,75.84,4.1,816.359,10.764,200.000,0.000,0.000,0.000,1.000,General
 ElectricEquipment Internal Gains, THERMAL ZONE 16 ASHRAE_90.1-2004 CLIMATEZONE 1-8 MEDIUMOFFICE WHOLEBUILDING ELECTRIC EQUIPMENT,MEDIUM OFFICE_BLDG_EQUIP,THERMAL ZONE 16,75.84,4.1,816.359,10.764,200.000,0.000,0.000,0.000,1.000,General
 ElectricEquipment Internal Gains, THERMAL ZONE 17 ASHRAE_90.1-2004 CLIMATEZONE 1-8 MEDIUMOFFICE WHOLEBUILDING ELECTRIC EQUIPMENT,MEDIUM OFFICE_BLDG_EQUIP,THERMAL ZONE 17,75.84,4.1,816.359,10.764,200.000,0.000,0.000,0.000,1.000,General
 ElectricEquipment Internal Gains, THERMAL ZONE 18 ASHRAE_90.1-2004 CLIMATEZONE 1-8 MEDIUMOFFICE WHOLEBUILDING ELECTRIC EQUIPMENT,MEDIUM OFFICE_BLDG_EQUIP,THERMAL ZONE 18,75.84,4.1,816.359,10.764,200.000,0.000,0.000,0.000,1.000,General
 ElectricEquipment Internal Gains, THERMAL ZONE 19 ASHRAE_90.1-2004 CLIMATEZONE 1-8 MEDIUMOFFICE WHOLEBUILDING ELECTRIC EQUIPMENT,MEDIUM OFFICE_BLDG_EQUIP,THERMAL ZONE 19,75.84,4.1,816.359,10.764,200.000,0.000,0.000,0.000,1.000,General
 ElectricEquipment Internal Gains, THERMAL ZONE 2 ASHRAE_90.1-2004 CLIMATEZONE 1-8 MEDIUMOFFICE WHOLEBUILDING ELECTRIC EQUIPMENT,MEDIUM OFFICE_BLDG_EQUIP,THERMAL ZONE 2,75.84,4.1,816.359,10.764,200.000,0.000,0.000,0.000,1.000,General
 ElectricEquipment Internal Gains, THERMAL ZONE 20 ASHRAE_90.1-2004 CLIMATEZONE 1-8 MEDIUMOFFICE WHOLEBUILDING ELECTRIC EQUIPMENT,MEDIUM OFFICE_BLDG_EQUIP,THERMAL ZONE 20,75.84,4.1,816.359,10.764,200.000,0.000,0.000,0.000,1.000,General
 ElectricEquipment Internal Gains, THERMAL ZONE 21 ASHRAE_90.1-2004 CLIMATEZONE 1-8 MEDIUMOFFICE WHOLEBUILDING ELECTRIC EQUIPMENT,MEDIUM OFFICE_BLDG_EQUIP,THERMAL ZONE 21,496.43,26.7,5343.541,10.764,200.000,0.000,0.000,0.000,1.000,General
 ElectricEquipment Internal Gains, THERMAL ZONE 22 ASHRAE_90.1-2004 CLIMATEZONE 1-8 MEDIUMOFFICE WHOLEBUILDING ELECTRIC EQUIPMENT,MEDIUM OFFICE_BLDG_EQUIP,THERMAL ZONE 22,75.84,4.1,816.359,10.764,200.000,0.000,0.000,0.000,1.000,General
 ElectricEquipment Internal Gains, THERMAL ZONE 23 ASHRAE_90.1-2004 CLIMATEZONE 1-8 MEDIUMOFFICE WHOLEBUILDING ELECTRIC EQUIPMENT,MEDIUM OFFICE_BLDG_EQUIP,THERMAL ZONE 23,75.84,4.1,816.359,10.764,200.000,0.000,0.000,0.000,1.000,General
 ElectricEquipment Internal Gains, THERMAL ZONE 24 ASHRAE_90.1-2004 CLIMATEZONE 1-8 MEDIUMOFFICE WHOLEBUILDING ELECTRIC EQUIPMENT,MEDIUM OFFICE_BLDG_EQUIP,THERMAL ZONE 24,75.84,4.1,816.359,10.764,200.000,0.000,0.000,0.000,1.000,General
 ElectricEquipment Internal Gains, THERMAL ZONE 25 ASHRAE_90.1-2004 CLIMATEZONE 1-8 MEDIUMOFFICE WHOLEBUILDING ELECTRIC EQUIPMENT,MEDIUM OFFICE_BLDG_EQUIP,THERMAL ZONE 25,75.84,4.1,816.359,10.764,200.000,0.000,0.000,0.000,1.000,General
 ElectricEquipment Internal Gains, THERMAL ZONE 3 ASHRAE_90.1-2004 CLIMATEZONE 1-8 MEDIUMOFFICE WHOLEBUILDING ELECTRIC EQUIPMENT,MEDIUM OFFICE_BLDG_EQUIP,THERMAL ZONE 3,75.84,4.1,816.359,10.764,200.000,0.000,0.000,0.000,1.000,General
 ElectricEquipment Internal Gains, THERMAL ZONE 4 ASHRAE_90.1-2004 CLIMATEZONE 1-8 MEDIUMOFFICE WHOLEBUILDING ELECTRIC EQUIPMENT,MEDIUM OFFICE_BLDG_EQUIP,THERMAL ZONE 4,75.84,4.1,816.359,10.764,200.000,0.000,0.000,0.000,1.000,General
 ElectricEquipment Internal Gains, THERMAL ZONE 5 ASHRAE_90.1-2004 CLIMATEZONE 1-8 MEDIUMOFFICE WHOLEBUILDING ELECTRIC EQUIPMENT,MEDIUM OFFICE_BLDG_EQUIP,THERMAL ZONE 5,496.43,26.7,5343.541,10.764,200.000,0.000,0.000,0.000,1.000,General
 ElectricEquipment Internal Gains, THERMAL ZONE 6 ASHRAE_90.1-2004 CLIMATEZONE 1-8 MEDIUMOFFICE WHOLEBUILDING ELECTRIC EQUIPMENT,MEDIUM OFFICE_BLDG_EQUIP,THERMAL ZONE 6,75.84,4.1,816.359,10.764,200.000,0.000,0.000,0.000,1.000,General
 ElectricEquipment Internal Gains, THERMAL ZONE 7 ASHRAE_90.1-2004 CLIMATEZONE 1-8 MEDIUMOFFICE WHOLEBUILDING ELECTRIC EQUIPMENT,MEDIUM OFFICE_BLDG_EQUIP,THERMAL ZONE 7,75.84,4.1,816.359,10.764,200.000,0.000,0.000,0.000,1.000,General
 ElectricEquipment Internal Gains, THERMAL ZONE 8 ASHRAE_90.1-2004 CLIMATEZONE 1-8 MEDIUMOFFICE WHOLEBUILDING ELECTRIC EQUIPMENT,MEDIUM OFFICE_BLDG_EQUIP,THERMAL ZONE 8,496.43,26.7,5343.541,10.764,200.000,0.000,0.000,0.000,1.000,General
 ElectricEquipment Internal Gains, THERMAL ZONE 9 ASHRAE_90.1-2004 CLIMATEZONE 1-8 MEDIUMOFFICE WHOLEBUILDING ELECTRIC EQUIPMENT,MEDIUM OFFICE_BLDG_EQUIP,THERMAL ZONE 9,75.84,4.1,816.359,10.764,200.000,0.000,0.000,0.000,1.000,General
! <Shadowing/Sun Position Calculations> [Annual Simulations], Value {days}, Allowable Number Figures in Shadow Overlap {}, Polygon Clipping Algorithm, Sky Diffuse Modeling Algorithm
Shadowing/Sun Position Calculations,20,15000,SutherlandHodgman,SimpleSkyDiffuseModeling
! <Infiltration Airflow Stats - Nominal>,Name,Schedule Name,Zone Name, Zone Floor Area {m2}, # Zone Occupants,Design Volume Flow Rate {m3/s},Volume Flow Rate/Floor Area {m3/s/m2},Volume Flow Rate/Exterior Surface Area {m3/s/m2},ACH - Air Changes per Hour,Equation A - Constant Term Coefficient {},Equation B - Temperature Term Coefficient {1/C},Equation C - Velocity Term Coefficient {s/m}, Equation D - Velocity Squared Term Coefficient {s2/m2}
 ZoneInfiltration Airflow Stats, THERMAL ZONE 1 ASHRAE_90.1-2004 CLIMATEZONE 1-8 MEDIUMOFFICE WHOLEBUILDING INFILTRATION,MEDIUM OFFICE_INFIL_QUARTER_ON,THERMAL ZONE 1,75.84,4.1,3.419E-002,4.508E-004,3.023E-004,0.406,1.000,0.000,0.000,0.000
 ZoneInfiltration Airflow Stats, THERMAL ZONE 10 ASHRAE_90.1-2004 CLIMATEZONE 1-8 MEDIUMOFFICE WHOLEBUILDING INFILTRATION,MEDIUM OFFICE_INFIL_QUARTER_ON,THERMAL ZONE 10,496.43,26.7,0.000,0.000,N/A,0.000,1.000,0.000,0.000,0.000
 ZoneInfiltration Airflow Stats, THERMAL ZONE 11 ASHRAE_90.1-2004 CLIMATEZONE 1-8 MEDIUMOFFICE WHOLEBUILDING INFILTRATION,MEDIUM OFFICE_INFIL_QUARTER_ON,THERMAL ZONE 11,496.43,26.7,0.000,0.000,N/A,0.000,1.000,0.000,0.000,0.000
 ZoneInfiltration Airflow Stats, THERMAL ZONE 12 ASHRAE_90.1-2004 CLIMATEZONE 1-8 MEDIUMOFFICE WHOLEBUILDING INFILTRATION,MEDIUM OFFICE_INFIL_QUARTER_ON,THERMAL ZONE 12,75.84,4.1,3.419E-002,4.508E-004,3.023E-004,0.406,1.000,0.000,0.000,0.000
 ZoneInfiltration Airflow Stats, THERMAL ZONE 13 ASHRAE_90.1-2004 CLIMATEZONE 1-8 MEDIUMOFFICE WHOLEBUILDING INFILTRATION,MEDIUM OFFICE_INFIL_QUARTER_ON,THERMAL ZONE 13,75.84,4.1,5.712E-002,7.531E-004,3.023E-004,0.678,1.000,0.000,0.000,0.000
 ZoneInfiltration Airflow Stats, THERMAL ZONE 14 ASHRAE_90.1-2004 CLIMATEZONE 1-8 MEDIUMOFFICE WHOLEBUILDING INFILTRATION,MEDIUM OFFICE_INFIL_QUARTER_ON,THERMAL ZONE 14,75.84,4.1,3.419E-002,4.508E-004,3.023E-004,0.406,1.000,0.000,0.000,0.000
 ZoneInfiltration Airflow Stats, THERMAL ZONE 15 ASHRAE_90.1-2004 CLIMATEZONE 1-8 MEDIUMOFFICE WHOLEBUILDING INFILTRATION,MEDIUM OFFICE_INFIL_QUARTER_ON,THERMAL ZONE 15,75.84,4.1,3.419E-002,4.508E-004,3.023E-004,0.406,1.000,0.000,0.000,0.000
 ZoneInfiltration Airflow Stats, THERMAL ZONE 16 ASHRAE_90.1-2004 CLIMATEZONE 1-8 MEDIUMOFFICE WHOLEBUILDING INFILTRATION,MEDIUM OFFICE_INFIL_QUARTER_ON,THERMAL ZONE 16,75.84,4.1,3.419E-002,4.508E-004,3.023E-004,0.406,1.000,0.000,0.000,0.000
 ZoneInfiltration Airflow Stats, THERMAL ZONE 17 ASHRAE_90.1-2004 CLIMATEZONE 1-8 MEDIUMOFFICE WHOLEBUILDING INFILTRATION,MEDIUM OFFICE_INFIL_QUARTER_ON,THERMAL ZONE 17,75.84,4.1,3.419E-002,4.508E-004,3.023E-004,0.406,1.000,0.000,0.000,0.000
 ZoneInfiltration Airflow Stats, THERMAL ZONE 18 ASHRAE_90.1-2004 CLIMATEZONE 1-8 MEDIUMOFFICE WHOLEBUILDING INFILTRATION,MEDIUM OFFICE_INFIL_QUARTER_ON,THERMAL ZONE 18,75.84,4.1,3.419E-002,4.508E-004,3.023E-004,0.406,1.000,0.000,0.000,0.000
 ZoneInfiltration Airflow Stats, THERMAL ZONE 19 ASHRAE_90.1-2004 CLIMATEZONE 1-8 MEDIUMOFFICE WHOLEBUILDING INFILTRATION,MEDIUM OFFICE_INFIL_QUARTER_ON,THERMAL ZONE 19,75.84,4.1,5.712E-002,7.531E-004,3.023E-004,0.678,1.000,0.000,0.000,0.000
 ZoneInfiltration Airflow Stats, THERMAL ZONE 2 ASHRAE_90.1-2004 CLIMATEZONE 1-8 MEDIUMOFFICE WHOLEBUILDING INFILTRATION,MEDIUM OFFICE_INFIL_QUARTER_ON,THERMAL ZONE 2,75.84,4.1,3.419E-002,4.508E-004,3.023E-004,0.406,1.000,0.000,0.000,0.000
 ZoneInfiltration Airflow Stats, THERMAL ZONE 20 ASHRAE_90.1-2004 CLIMATEZONE 1-8 MEDIUMOFFICE WHOLEBUILDING INFILTRATION,MEDIUM OFFICE_INFIL_QUARTER_ON,THERMAL ZONE 20,75.84,4.1,5.712E-002,7.531E-004,3.023E-004,0.678,1.000,0.000,0.000,0.000
 ZoneInfiltration Airflow Stats, THERMAL ZONE 21 ASHRAE_90.1-2004 CLIMATEZONE 1-8 MEDIUMOFFICE WHOLEBUILDING INFILTRATION,MEDIUM OFFICE_INFIL_QUARTER_ON,THERMAL ZONE 21,496.43,26.7,0.000,0.000,N/A,0.000,1.000,0.000,0.000,0.000
 ZoneInfiltration Airflow Stats, THERMAL ZONE 22 ASHRAE_90.1-2004 CLIMATEZONE 1-8 MEDIUMOFFICE WHOLEBUILDING INFILTRATION,MEDIUM OFFICE_INFIL_QUARTER_ON,THERMAL ZONE 22,75.84,4.1,3.419E-002,4.508E-004,3.023E-004,0.406,1.000,0.000,0.000,0.000
 ZoneInfiltration Airflow Stats, THERMAL ZONE 23 ASHRAE_90.1-2004 CLIMATEZONE 1-8 MEDIUMOFFICE WHOLEBUILDING INFILTRATION,MEDIUM OFFICE_INFIL_QUARTER_ON,THERMAL ZONE 23,75.84,4.1,3.419E-002,4.508E-004,3.023E-004,0.406,1.000,0.000,0.000,0.000
 ZoneInfiltration Airflow Stats, THERMAL ZONE 24 ASHRAE_90.1-2004 CLIMATEZONE 1-8 MEDIUMOFFICE WHOLEBUILDING INFILTRATION,MEDIUM OFFICE_INFIL_QUARTER_ON,THERMAL ZONE 24,75.84,4.1,3.419E-002,4.508E-004,3.023E-004,0.406,1.000,0.000,0.000,0.000
 ZoneInfiltration Airflow Stats, THERMAL ZONE 25 ASHRAE_90.1-2004 CLIMATEZONE 1-8 MEDIUMOFFICE WHOLEBUILDING INFILTRATION,MEDIUM OFFICE_INFIL_QUARTER_ON,THERMAL ZONE 25,75.84,4.1,3.419E-002,4.508E-004,3.023E-004,0.406,1.000,0.000,0.000,0.000
 ZoneInfiltration Airflow Stats, THERMAL ZONE 3 ASHRAE_90.1-2004 CLIMATEZONE 1-8 MEDIUMOFFICE WHOLEBUILDING INFILTRATION,MEDIUM OFFICE_INFIL_QUARTER_ON,THERMAL ZONE 3,75.84,4.1,3.419E-002,4.508E-004,3.023E-004,0.406,1.000,0.000,0.000,0.000
 ZoneInfiltration Airflow Stats, THERMAL ZONE 4 ASHRAE_90.1-2004 CLIMATEZONE 1-8 MEDIUMOFFICE WHOLEBUILDING INFILTRATION,MEDIUM OFFICE_INFIL_QUARTER_ON,THERMAL ZONE 4,75.84,4.1,3.419E-002,4.508E-004,3.023E-004,0.406,1.000,0.000,0.000,0.000
 ZoneInfiltration Airflow Stats, THERMAL ZONE 5 ASHRAE_90.1-2004 CLIMATEZONE 1-8 MEDIUMOFFICE WHOLEBUILDING INFILTRATION,MEDIUM OFFICE_INFIL_QUARTER_ON,THERMAL ZONE 5,496.43,26.7,0.150,3.023E-004,3.023E-004,0.272,1.000,0.000,0.000,0.000
 ZoneInfiltration Airflow Stats, THERMAL ZONE 6 ASHRAE_90.1-2004 CLIMATEZONE 1-8 MEDIUMOFFICE WHOLEBUILDING INFILTRATION,MEDIUM OFFICE_INFIL_QUARTER_ON,THERMAL ZONE 6,75.84,4.1,5.712E-002,7.531E-004,3.023E-004,0.678,1.000,0.000,0.000,0.000
 ZoneInfiltration Airflow Stats, THERMAL ZONE 7 ASHRAE_90.1-2004 CLIMATEZONE 1-8 MEDIUMOFFICE WHOLEBUILDING INFILTRATION,MEDIUM OFFICE_INFIL_QUARTER_ON,THERMAL ZONE 7,75.84,4.1,3.419E-002,4.508E-004,3.023E-004,0.406,1.000,0.000,0.000,0.000
 ZoneInfiltration Airflow Stats, THERMAL ZONE 8 ASHRAE_90.1-2004 CLIMATEZONE 1-8 MEDIUMOFFICE WHOLEBUILDING INFILTRATION,MEDIUM OFFICE_INFIL_QUARTER_ON,THERMAL ZONE 8,496.43,26.7,0.000,0.000,N/A,0.000,1.000,0.000,0.000,0.000
 ZoneInfiltration Airflow Stats, THERMAL ZONE 9 ASHRAE_90.1-2004 CLIMATEZONE 1-8 MEDIUMOFFICE WHOLEBUILDING INFILTRATION,MEDIUM OFFICE_INFIL_QUARTER_ON,THERMAL ZONE 9,75.84,4.1,3.419E-002,4.508E-004,3.023E-004,0.406,1.000,0.000,0.000,0.000
! <AirFlow Model>, Simple
 AirFlow Model, Simple
! <RoomAir Model>, Zone Name, Mixing/Mundt/UCSDDV/UCSDCV/UCSDUFI/UCSDUFE/User Defined
RoomAir Model,THERMAL ZONE 25,Mixing/Well-Stirred
RoomAir Model,THERMAL ZONE 16,Mixing/Well-Stirred
RoomAir Model,THERMAL ZONE 6,Mixing/Well-Stirred
RoomAir Model,THERMAL ZONE 9,Mixing/Well-Stirred
RoomAir Model,THERMAL ZONE 8,Mixing/Well-Stirred
RoomAir Model,THERMAL ZONE 2,Mixing/Well-Stirred
RoomAir Model,THERMAL ZONE 22,Mixing/Well-Stirred
RoomAir Model,THERMAL ZONE 13,Mixing/Well-Stirred
RoomAir Model,THERMAL ZONE 20,Mixing/Well-Stirred
RoomAir Model,THERMAL ZONE 3,Mixing/Well-Stirred
RoomAir Model,THERMAL ZONE 4,Mixing/Well-Stirred
RoomAir Model,THERMAL ZONE 21,Mixing/Well-Stirred
RoomAir Model,THERMAL ZONE 23,Mixing/Well-Stirred
RoomAir Model,THERMAL ZONE 1,Mixing/Well-Stirred
RoomAir Model,THERMAL ZONE 7,Mixing/Well-Stirred
RoomAir Model,THERMAL ZONE 10,Mixing/Well-Stirred
RoomAir Model,THERMAL ZONE 18,Mixing/Well-Stirred
RoomAir Model,THERMAL ZONE 17,Mixing/Well-Stirred
RoomAir Model,THERMAL ZONE 19,Mixing/Well-Stirred
RoomAir Model,THERMAL ZONE 11,Mixing/Well-Stirred
RoomAir Model,THERMAL ZONE 14,Mixing/Well-Stirred
RoomAir Model,THERMAL ZONE 12,Mixing/Well-Stirred
RoomAir Model,THERMAL ZONE 15,Mixing/Well-Stirred
RoomAir Model,THERMAL ZONE 5,Mixing/Well-Stirred
RoomAir Model,THERMAL ZONE 24,Mixing/Well-Stirred
! <AirflowNetwork Model:Control>, No Multizone or Distribution/Multizone with Distribution/Multizone without Distribution/Multizone with Distribution only during Fan Operation
AirflowNetwork Model:Control,NoMultizoneOrDistribution
! <Zone Volume Capacitance Multiplier>, Sensible Heat Capacity Multiplier, Moisture Capacity Multiplier, Carbon Dioxide Capacity Multiplier, Generic Contaminant Capacity Multiplier
Zone Volume Capacitance Multiplier,   1.000 ,   1.000,   1.000,   1.000
! <Load Timesteps in Zone Design Calculation Averaging Window>, Value
 Load Timesteps in Zone Design Calculation Averaging Window,    4
! <Heating Sizing Factor Information>, Sizing Factor ID, Value
 Heating Sizing Factor Information, Global,   1.2500    
 Heating Sizing Factor Information, Zone THERMAL ZONE 25,   1.2500    
 Heating Sizing Factor Information, Zone THERMAL ZONE 16,   1.2500    
 Heating Sizing Factor Information, Zone THERMAL ZONE 6,   1.2500    
 Heating Sizing Factor Information, Zone THERMAL ZONE 9,   1.2500    
 Heating Sizing Factor Information, Zone THERMAL ZONE 8,   1.2500    
 Heating Sizing Factor Information, Zone THERMAL ZONE 2,   1.2500    
 Heating Sizing Factor Information, Zone THERMAL ZONE 22,   1.2500    
 Heating Sizing Factor Information, Zone THERMAL ZONE 13,   1.2500    
 Heating Sizing Factor Information, Zone THERMAL ZONE 20,   1.2500    
 Heating Sizing Factor Information, Zone THERMAL ZONE 3,   1.2500    
 Heating Sizing Factor Information, Zone THERMAL ZONE 4,   1.2500    
 Heating Sizing Factor Information, Zone THERMAL ZONE 21,   1.2500    
 Heating Sizing Factor Information, Zone THERMAL ZONE 23,   1.2500    
 Heating Sizing Factor Information, Zone THERMAL ZONE 1,   1.2500    
 Heating Sizing Factor Information, Zone THERMAL ZONE 7,   1.2500    
 Heating Sizing Factor Information, Zone THERMAL ZONE 10,   1.2500    
 Heating Sizing Factor Information, Zone THERMAL ZONE 18,   1.2500    
 Heating Sizing Factor Information, Zone THERMAL ZONE 17,   1.2500    
 Heating Sizing Factor Information, Zone THERMAL ZONE 19,   1.2500    
 Heating Sizing Factor Information, Zone THERMAL ZONE 11,   1.2500    
 Heating Sizing Factor Information, Zone THERMAL ZONE 14,   1.2500    
 Heating Sizing Factor Information, Zone THERMAL ZONE 12,   1.2500    
 Heating Sizing Factor Information, Zone THERMAL ZONE 15,   1.2500    
 Heating Sizing Factor Information, Zone THERMAL ZONE 5,   1.2500    
 Heating Sizing Factor Information, Zone THERMAL ZONE 24,   1.2500    
! <Cooling Sizing Factor Information>, Sizing Factor ID, Value
 Cooling Sizing Factor Information, Global,   1.1500    
 Cooling Sizing Factor Information, Zone THERMAL ZONE 25,   1.1500    
 Cooling Sizing Factor Information, Zone THERMAL ZONE 16,   1.1500    
 Cooling Sizing Factor Information, Zone THERMAL ZONE 6,   1.1500    
 Cooling Sizing Factor Information, Zone THERMAL ZONE 9,   1.1500    
 Cooling Sizing Factor Information, Zone THERMAL ZONE 8,   1.1500    
 Cooling Sizing Factor Information, Zone THERMAL ZONE 2,   1.1500    
 Cooling Sizing Factor Information, Zone THERMAL ZONE 22,   1.1500    
 Cooling Sizing Factor Information, Zone THERMAL ZONE 13,   1.1500    
 Cooling Sizing Factor Information, Zone THERMAL ZONE 20,   1.1500    
 Cooling Sizing Factor Information, Zone THERMAL ZONE 3,   1.1500    
 Cooling Sizing Factor Information, Zone THERMAL ZONE 4,   1.1500    
 Cooling Sizing Factor Information, Zone THERMAL ZONE 21,   1.1500    
 Cooling Sizing Factor Information, Zone THERMAL ZONE 23,   1.1500    
 Cooling Sizing Factor Information, Zone THERMAL ZONE 1,   1.1500    
 Cooling Sizing Factor Information, Zone THERMAL ZONE 7,   1.1500    
 Cooling Sizing Factor Information, Zone THERMAL ZONE 10,   1.1500    
 Cooling Sizing Factor Information, Zone THERMAL ZONE 18,   1.1500    
 Cooling Sizing Factor Information, Zone THERMAL ZONE 17,   1.1500    
 Cooling Sizing Factor Information, Zone THERMAL ZONE 19,   1.1500    
 Cooling Sizing Factor Information, Zone THERMAL ZONE 11,   1.1500    
 Cooling Sizing Factor Information, Zone THERMAL ZONE 14,   1.1500    
 Cooling Sizing Factor Information, Zone THERMAL ZONE 12,   1.1500    
 Cooling Sizing Factor Information, Zone THERMAL ZONE 15,   1.1500    
 Cooling Sizing Factor Information, Zone THERMAL ZONE 5,   1.1500    
 Cooling Sizing Factor Information, Zone THERMAL ZONE 24,   1.1500    
! <Zone Sizing Information>, Zone Name, Load Type, Calc Des Load {W}, User Des Load {W}, Calc Des Air Flow Rate {m3/s}, User Des Air Flow Rate {m3/s}, Design Day Name, Date/Time of Peak, Temperature at Peak {C}, Humidity Ratio at Peak {kgWater/kgDryAir}, Floor Area {m2}, # Occupants, Calc Outdoor Air Flow Rate {m3/s}
 Zone Sizing Information, THERMAL ZONE 25, Cooling, 5596.16984, 6435.59532, 0.32532, 0.37412, SAN FRANCISCO INTL AP ANN CLG .4% CONDNS DB=>MWB, 8/21 14:45:00, 28.30000, 7.71372E-003, 75.84221, 4.08179, 3.85278E-002
 Zone Sizing Information, THERMAL ZONE 25, Heating, 2690.50826, 3363.13532, 0.13694, 0.17118, SAN FRANCISCO INTL AP ANN HTG 99.6% CONDNS DB, 1/21 06:00:00, 3.80000, 4.96421E-003, 75.84221, 4.08179, 3.85278E-002
 Zone Sizing Information, THERMAL ZONE 16, Cooling, 5769.07309, 6634.43406, 0.33537, 0.38568, SAN FRANCISCO INTL AP ANN CLG .4% CONDNS DB=>MWB, 8/21 14:45:00, 28.30000, 7.71372E-003, 75.84221, 4.08179, 3.85278E-002
 Zone Sizing Information, THERMAL ZONE 16, Heating, 2683.47089, 3354.33861, 0.13659, 0.17073, SAN FRANCISCO INTL AP ANN HTG 99.6% CONDNS DB, 1/21 06:00:00, 3.80000, 4.96421E-003, 75.84221, 4.08179, 3.85278E-002
 Zone Sizing Information, THERMAL ZONE 6, Cooling, 2540.95755, 2922.10118, 0.14771, 0.16987, SAN FRANCISCO INTL AP ANN CLG .4% CONDNS DB=>MWB, 8/21 15:45:00, 27.91750, 7.71373E-003, 75.84221, 4.08179, 3.85278E-002
 Zone Sizing Information, THERMAL ZONE 6, Heating, 3602.17431, 4502.71789, 0.18333, 0.22917, SAN FRANCISCO INTL AP ANN HTG 99.6% CONDNS DB, 1/21 06:00:00, 3.80000, 4.96421E-003, 75.84221, 4.08179, 3.85278E-002
 Zone Sizing Information, THERMAL ZONE 9, Cooling, 5760.30057, 6624.34565, 0.33486, 0.38509, SAN FRANCISCO INTL AP ANN CLG .4% CONDNS DB=>MWB, 8/21 14:45:00, 28.30000, 7.71372E-003, 75.84221, 4.08179, 3.85278E-002
 Zone Sizing Information, THERMAL ZONE 9, Heating, 2655.73810, 3319.67263, 0.13517, 0.16897, SAN FRANCISCO INTL AP ANN HTG 99.6% CONDNS DB, 1/21 06:00:00, 3.80000, 4.96421E-003, 75.84221, 4.08179, 3.85278E-002
 Zone Sizing Information, THERMAL ZONE 8, Cooling, 12883.21943, 14815.70234, 0.74900, 0.86136, SAN FRANCISCO INTL AP ANN CLG .4% CONDNS DB=>MWB, 8/21 17:45:00, 26.47250, 7.71372E-003, 496.43117, 26.71770, 0.25219
 Zone Sizing Information, THERMAL ZONE 8, Heating, 1157.71589, 1447.14487, 5.89345E-002, 0.25219, SAN FRANCISCO INTL AP ANN HTG 99.6% CONDNS DB, 1/21 07:15:00, 3.80000, 4.96421E-003, 496.43117, 26.71770, 0.25219
 Zone Sizing Information, THERMAL ZONE 2, Cooling, 1314.36904, 1511.52439, 7.64103E-002, 8.78718E-002, SAN FRANCISCO INTL AP ANN CLG .4% CONDNS DB=>MWB, 8/21 15:15:00, 28.17250, 7.71372E-003, 75.84221, 4.08179, 3.85278E-002
 Zone Sizing Information, THERMAL ZONE 2, Heating, 3226.62377, 4033.27971, 0.16423, 0.20529, SAN FRANCISCO INTL AP ANN HTG 99.6% CONDNS DB, 1/21 06:00:00, 3.80000, 4.96421E-003, 75.84221, 4.08179, 3.85278E-002
 Zone Sizing Information, THERMAL ZONE 22, Cooling, 3827.06763, 4401.12777, 0.22248, 0.25585, SAN FRANCISCO INTL AP ANN CLG .4% CONDNS DB=>MWB, 8/21 14:00:00, 28.30000, 7.71372E-003, 75.84221, 4.08179, 3.85278E-002
 Zone Sizing Information, THERMAL ZONE 22, Heating, 3224.24054, 4030.30067, 0.16411, 0.20514, SAN FRANCISCO INTL AP ANN HTG 99.6% CONDNS DB, 1/21 06:00:00, 3.80000, 4.96421E-003, 75.84221, 4.08179, 3.85278E-002
 Zone Sizing Information, THERMAL ZONE 13, Cooling, 5599.25133, 6439.13903, 0.32550, 0.37432, SAN FRANCISCO INTL AP ANN CLG .4% CONDNS DB=>MWB, 8/21 14:45:00, 28.30000, 7.71372E-003, 75.84221, 4.08179, 3.85278E-002
 Zone Sizing Information, THERMAL ZONE 13, Heating, 3605.73024, 4507.16281, 0.18351, 0.22939, SAN FRANCISCO INTL AP ANN HTG 99.6% CONDNS DB, 1/21 06:00:00, 3.80000, 4.96421E-003, 75.84221, 4.08179, 3.85278E-002
 Zone Sizing Information, THERMAL ZONE 20, Cooling, 5653.50202, 6501.52732, 0.32865, 0.37795, SAN FRANCISCO INTL AP ANN CLG .4% CONDNS DB=>MWB, 8/21 10:45:00, 26.02625, 7.71373E-003, 75.84221, 4.08179, 3.85278E-002
 Zone Sizing Information, THERMAL ZONE 20, Heating, 3605.73024, 4507.16281, 0.18351, 0.22939, SAN FRANCISCO INTL AP ANN HTG 99.6% CONDNS DB, 1/21 06:00:00, 3.80000, 4.96421E-003, 75.84221, 4.08179, 3.85278E-002
 Zone Sizing Information, THERMAL ZONE 3, Cooling, 2542.75522, 2924.16851, 0.14782, 0.16999, SAN FRANCISCO INTL AP ANN CLG .4% CONDNS DB=>MWB, 8/21 15:30:00, 28.04500, 7.71373E-003, 75.84221, 4.08179, 3.85278E-002
 Zone Sizing Information, THERMAL ZONE 3, Heating, 2654.05187, 3317.56484, 0.13509, 0.16886, SAN FRANCISCO INTL AP ANN HTG 99.6% CONDNS DB, 1/21 06:00:00, 3.80000, 4.96421E-003, 75.84221, 4.08179, 3.85278E-002
 Zone Sizing Information, THERMAL ZONE 4, Cooling, 5670.38099, 6520.93813, 0.32963, 0.37908, SAN FRANCISCO INTL AP ANN CLG .4% CONDNS DB=>MWB, 8/21 11:00:00, 26.34500, 7.71372E-003, 75.84221, 4.08179, 3.85278E-002
 Zone Sizing Information, THERMAL ZONE 4, Heating, 2690.50826, 3363.13532, 0.13694, 0.17118, SAN FRANCISCO INTL AP ANN HTG 99.6% CONDNS DB, 1/21 06:00:00, 3.80000, 4.96421E-003, 75.84221, 4.08179, 3.85278E-002
 Zone Sizing Information, THERMAL ZONE 21, Cooling, 6051.05042, 6958.70798, 0.35179, 0.40456, SAN FRANCISCO INTL AP ANN CLG .4% CONDNS DB=>MWB, 8/21 16:30:00, 27.45000, 7.71373E-003, 496.43117, 26.71770, 0.25219
 Zone Sizing Information, THERMAL ZONE 21, Heating, 4614.51407, 5768.14259, 0.23491, 0.29363, SAN FRANCISCO INTL AP ANN HTG 99.6% CONDNS DB, 1/21 06:45:00, 3.80000, 4.96421E-003, 496.43117, 26.71770, 0.25219
 Zone Sizing Information, THERMAL ZONE 23, Cooling, 4909.36376, 5645.76832, 0.28540, 0.32820, SAN FRANCISCO INTL AP ANN CLG .4% CONDNS DB=>MWB, 8/21 17:15:00, 26.89750, 7.71372E-003, 75.84221, 4.08179, 3.85278E-002
 Zone Sizing Information, THERMAL ZONE 23, Heating, 3226.62377, 4033.27971, 0.16423, 0.20529, SAN FRANCISCO INTL AP ANN HTG 99.6% CONDNS DB, 1/21 06:00:00, 3.80000, 4.96421E-003, 75.84221, 4.08179, 3.85278E-002
 Zone Sizing Information, THERMAL ZONE 1, Cooling, 4124.07891, 4742.69075, 0.23975, 0.27571, SAN FRANCISCO INTL AP ANN CLG .4% CONDNS DB=>MWB, 8/21 10:00:00, 25.07000, 7.71372E-003, 75.84221, 4.08179, 3.85278E-002
 Zone Sizing Information, THERMAL ZONE 1, Heating, 3224.24054, 4030.30067, 0.16411, 0.20514, SAN FRANCISCO INTL AP ANN HTG 99.6% CONDNS DB, 1/21 06:00:00, 3.80000, 4.96421E-003, 75.84221, 4.08179, 3.85278E-002
 Zone Sizing Information, THERMAL ZONE 7, Cooling, 5866.27379, 6746.21485, 0.34102, 0.39217, SAN FRANCISCO INTL AP ANN CLG .4% CONDNS DB=>MWB, 8/21 10:45:00, 26.02625, 7.71373E-003, 75.84221, 4.08179, 3.85278E-002
 Zone Sizing Information, THERMAL ZONE 7, Heating, 2683.47089, 3354.33861, 0.13659, 0.17073, SAN FRANCISCO INTL AP ANN HTG 99.6% CONDNS DB, 1/21 06:00:00, 3.80000, 4.96421E-003, 75.84221, 4.08179, 3.85278E-002
 Zone Sizing Information, THERMAL ZONE 10, Cooling, 11959.00226, 13752.85259, 0.69529, 0.79958, SAN FRANCISCO INTL AP ANN CLG .4% CONDNS DB=>MWB, 8/21 17:30:00, 26.68500, 7.71373E-003, 496.43117, 26.71770, 0.25219
 Zone Sizing Information, THERMAL ZONE 10, Heating, 1348.36619, 1685.45774, 6.86397E-002, 0.25219, SAN FRANCISCO INTL AP ANN HTG 99.6% CONDNS DB, 1/21 07:00:00, 3.80000, 4.96421E-003, 496.43117, 26.71770, 0.25219
 Zone Sizing Information, THERMAL ZONE 18, Cooling, 5853.25461, 6731.24280, 0.34026, 0.39130, SAN FRANCISCO INTL AP ANN CLG .4% CONDNS DB=>MWB, 8/21 10:45:00, 26.02625, 7.71373E-003, 75.84221, 4.08179, 3.85278E-002
 Zone Sizing Information, THERMAL ZONE 18, Heating, 2655.73810, 3319.67263, 0.13517, 0.16897, SAN FRANCISCO INTL AP ANN HTG 99.6% CONDNS DB, 1/21 06:00:00, 3.80000, 4.96421E-003, 75.84221, 4.08179, 3.85278E-002
 Zone Sizing Information, THERMAL ZONE 17, Cooling, 6670.60073, 7671.19084, 0.38778, 0.44595, SAN FRANCISCO INTL AP ANN CLG .4% CONDNS DB=>MWB, 8/21 17:30:00, 26.68500, 7.71373E-003, 75.84221, 4.08179, 3.85278E-002
 Zone Sizing Information, THERMAL ZONE 17, Heating, 2654.05187, 3317.56484, 0.13509, 0.16886, SAN FRANCISCO INTL AP ANN HTG 99.6% CONDNS DB, 1/21 06:00:00, 3.80000, 4.96421E-003, 75.84221, 4.08179, 3.85278E-002
 Zone Sizing Information, THERMAL ZONE 19, Cooling, 6573.38791, 7559.39610, 0.38212, 0.43944, SAN FRANCISCO INTL AP ANN CLG .4% CONDNS DB=>MWB, 8/21 17:30:00, 26.68500, 7.71373E-003, 75.84221, 4.08179, 3.85278E-002
 Zone Sizing Information, THERMAL ZONE 19, Heating, 3602.17431, 4502.71789, 0.18333, 0.22917, SAN FRANCISCO INTL AP ANN HTG 99.6% CONDNS DB, 1/21 06:00:00, 3.80000, 4.96421E-003, 75.84221, 4.08179, 3.85278E-002
 Zone Sizing Information, THERMAL ZONE 11, Cooling, 12721.72146, 14629.97968, 0.73962, 0.85056, SAN FRANCISCO INTL AP ANN CLG .4% CONDNS DB=>MWB, 8/21 17:30:00, 26.68500, 7.71373E-003, 496.43117, 26.71770, 0.25219
 Zone Sizing Information, THERMAL ZONE 11, Heating, 992.95741, 1241.19677, 5.05474E-002, 0.25219, SAN FRANCISCO INTL AP ANN HTG 99.6% CONDNS DB, 1/21 07:00:00, 3.80000, 4.96421E-003, 496.43117, 26.71770, 0.25219
 Zone Sizing Information, THERMAL ZONE 14, Cooling, 2379.14586, 2736.01774, 0.13831, 0.15906, SAN FRANCISCO INTL AP ANN CLG .4% CONDNS DB=>MWB, 8/21 15:30:00, 28.04500, 7.71373E-003, 75.84221, 4.08179, 3.85278E-002
 Zone Sizing Information, THERMAL ZONE 14, Heating, 2690.42794, 3363.03492, 0.13694, 0.17117, SAN FRANCISCO INTL AP ANN HTG 99.6% CONDNS DB, 1/21 06:00:00, 3.80000, 4.96421E-003, 75.84221, 4.08179, 3.85278E-002
 Zone Sizing Information, THERMAL ZONE 12, Cooling, 6512.94279, 7489.88421, 0.37861, 0.43541, SAN FRANCISCO INTL AP ANN CLG .4% CONDNS DB=>MWB, 8/21 17:45:00, 26.47250, 7.71372E-003, 75.84221, 4.08179, 3.85278E-002
 Zone Sizing Information, THERMAL ZONE 12, Heating, 2690.42794, 3363.03492, 0.13694, 0.17117, SAN FRANCISCO INTL AP ANN HTG 99.6% CONDNS DB, 1/21 06:00:00, 3.80000, 4.96421E-003, 75.84221, 4.08179, 3.85278E-002
 Zone Sizing Information, THERMAL ZONE 15, Cooling, 6676.34523, 7677.79702, 0.38811, 0.44633, SAN FRANCISCO INTL AP ANN CLG .4% CONDNS DB=>MWB, 8/21 17:30:00, 26.68500, 7.71373E-003, 75.84221, 4.08179, 3.85278E-002
 Zone Sizing Information, THERMAL ZONE 15, Heating, 2680.65275, 3350.81594, 0.13644, 0.17055, SAN FRANCISCO INTL AP ANN HTG 99.6% CONDNS DB, 1/21 06:00:00, 3.80000, 4.96421E-003, 75.84221, 4.08179, 3.85278E-002
 Zone Sizing Information, THERMAL ZONE 5, Cooling, 12911.97639, 14848.77285, 0.75066, 0.86326, SAN FRANCISCO INTL AP ANN CLG .4% CONDNS DB=>MWB, 8/21 18:30:00, 25.62250, 7.71373E-003, 496.43117, 26.71770, 0.25219
 Zone Sizing Information, THERMAL ZONE 5, Heating, 6736.84348, 8421.05435, 0.34291, 0.42864, SAN FRANCISCO INTL AP ANN HTG 99.6% CONDNS DB, 1/21 06:00:00, 3.80000, 4.96421E-003, 496.43117, 26.71770, 0.25219
 Zone Sizing Information, THERMAL ZONE 24, Cooling, 2560.06926, 2944.07965, 0.14883, 0.17115, SAN FRANCISCO INTL AP ANN CLG .4% CONDNS DB=>MWB, 8/21 15:30:00, 28.04500, 7.71373E-003, 75.84221, 4.08179, 3.85278E-002
 Zone Sizing Information, THERMAL ZONE 24, Heating, 2680.65275, 3350.81594, 0.13644, 0.17055, SAN FRANCISCO INTL AP ANN HTG 99.6% CONDNS DB, 1/21 06:00:00, 3.80000, 4.96421E-003, 75.84221, 4.08179, 3.85278E-002
! <System Sizing Information>, System Name, Field Description, Value
 System Sizing Information, AIR LOOP HVAC 1, Calculated Cooling Design Air Flow Rate [m3/s], 10.22385
 System Sizing Information, AIR LOOP HVAC 1, User Cooling Design Air Flow Rate [m3/s], 10.22385
 System Sizing Information, AIR LOOP HVAC 1, Calculated Heating Design Air Flow Rate [m3/s], 5.25974
 System Sizing Information, AIR LOOP HVAC 1, User Heating Design Air Flow Rate [m3/s], 5.25974
! <Component Sizing Information>, Component Type, Component Name, Input Field Description, Value
 Component Sizing Information, AirTerminal:SingleDuct:VAV:Reheat, AIR TERMINAL SINGLE DUCT VAV REHEAT 15, Maximum Air Flow Rate [m3/s], 0.37412
 Component Sizing Information, AirTerminal:SingleDuct:VAV:Reheat, AIR TERMINAL SINGLE DUCT VAV REHEAT 15, Maximum Flow per Zone Floor Area during Reheat [m3/s-m2], 2.03200E-003
 Component Sizing Information, AirTerminal:SingleDuct:VAV:Reheat, AIR TERMINAL SINGLE DUCT VAV REHEAT 15, Maximum Flow Fraction during Reheat [], 0.41193
 Component Sizing Information, AirTerminal:SingleDuct:VAV:Reheat, AIR TERMINAL SINGLE DUCT VAV REHEAT 15, Maximum Reheat Water Flow Rate [m3/s], 1.26300E-004
 Component Sizing Information, AirTerminal:SingleDuct:VAV:Reheat, AIR TERMINAL SINGLE DUCT VAV REHEAT 15, Reheat Coil Sizing Air Volume Flow Rate [m3/s], 0.17118
 Component Sizing Information, Coil:Heating:Water, COIL HEATING WATER 16, Maximum Water Flow Rate [m3/s], 1.26300E-004
 Component Sizing Information, Coil:Heating:Water, COIL HEATING WATER 16, Design Coil Load [W], 5813.63953
 Component Sizing Information, Coil:Heating:Water, COIL HEATING WATER 16, U-Factor Times Area Value [W/K], 266.10420
! <Water Heating Coil Capacity Information>,Component Type,Name,Nominal Total Capacity {W}
Water Heating Coil Capacity Information,Coil:Heating:Water,COIL HEATING WATER 16,8738.73
 Component Sizing Information, AirTerminal:SingleDuct:VAV:Reheat, AIR TERMINAL SINGLE DUCT VAV REHEAT 3, Maximum Air Flow Rate [m3/s], 0.38568
 Component Sizing Information, AirTerminal:SingleDuct:VAV:Reheat, AIR TERMINAL SINGLE DUCT VAV REHEAT 3, Maximum Flow per Zone Floor Area during Reheat [m3/s-m2], 2.03200E-003
 Component Sizing Information, AirTerminal:SingleDuct:VAV:Reheat, AIR TERMINAL SINGLE DUCT VAV REHEAT 3, Maximum Flow Fraction during Reheat [], 0.39959
 Component Sizing Information, AirTerminal:SingleDuct:VAV:Reheat, AIR TERMINAL SINGLE DUCT VAV REHEAT 3, Maximum Reheat Water Flow Rate [m3/s], 1.25970E-004
 Component Sizing Information, AirTerminal:SingleDuct:VAV:Reheat, AIR TERMINAL SINGLE DUCT VAV REHEAT 3, Reheat Coil Sizing Air Volume Flow Rate [m3/s], 0.17073
 Component Sizing Information, Coil:Heating:Water, COIL HEATING WATER 4, Maximum Water Flow Rate [m3/s], 1.25970E-004
 Component Sizing Information, Coil:Heating:Water, COIL HEATING WATER 4, Design Coil Load [W], 5798.43269
 Component Sizing Information, Coil:Heating:Water, COIL HEATING WATER 4, U-Factor Times Area Value [W/K], 274.32568
Water Heating Coil Capacity Information,Coil:Heating:Water,COIL HEATING WATER 4,8853.55
 Component Sizing Information, AirTerminal:SingleDuct:VAV:Reheat, AIR TERMINAL SINGLE DUCT VAV REHEAT 12, Maximum Air Flow Rate [m3/s], 0.22917
 Component Sizing Information, AirTerminal:SingleDuct:VAV:Reheat, AIR TERMINAL SINGLE DUCT VAV REHEAT 12, Maximum Flow per Zone Floor Area during Reheat [m3/s-m2], 2.03200E-003
 Component Sizing Information, AirTerminal:SingleDuct:VAV:Reheat, AIR TERMINAL SINGLE DUCT VAV REHEAT 12, Maximum Flow Fraction during Reheat [], 0.67248
 Component Sizing Information, AirTerminal:SingleDuct:VAV:Reheat, AIR TERMINAL SINGLE DUCT VAV REHEAT 12, Maximum Reheat Water Flow Rate [m3/s], 1.69084E-004
 Component Sizing Information, AirTerminal:SingleDuct:VAV:Reheat, AIR TERMINAL SINGLE DUCT VAV REHEAT 12, Reheat Coil Sizing Air Volume Flow Rate [m3/s], 0.22917
 Component Sizing Information, Coil:Heating:Water, COIL HEATING WATER 13, Maximum Water Flow Rate [m3/s], 1.69084E-004
 Component Sizing Information, Coil:Heating:Water, COIL HEATING WATER 13, Design Coil Load [W], 7783.00952
 Component Sizing Information, Coil:Heating:Water, COIL HEATING WATER 13, U-Factor Times Area Value [W/K], 163.00330
Water Heating Coil Capacity Information,Coil:Heating:Water,COIL HEATING WATER 13,7372.60
 Component Sizing Information, AirTerminal:SingleDuct:VAV:Reheat, AIR TERMINAL SINGLE DUCT VAV REHEAT 22, Maximum Air Flow Rate [m3/s], 0.38509
 Component Sizing Information, AirTerminal:SingleDuct:VAV:Reheat, AIR TERMINAL SINGLE DUCT VAV REHEAT 22, Maximum Flow per Zone Floor Area during Reheat [m3/s-m2], 2.03200E-003
 Component Sizing Information, AirTerminal:SingleDuct:VAV:Reheat, AIR TERMINAL SINGLE DUCT VAV REHEAT 22, Maximum Flow Fraction during Reheat [], 0.40020
 Component Sizing Information, AirTerminal:SingleDuct:VAV:Reheat, AIR TERMINAL SINGLE DUCT VAV REHEAT 22, Maximum Reheat Water Flow Rate [m3/s], 1.24668E-004
 Component Sizing Information, AirTerminal:SingleDuct:VAV:Reheat, AIR TERMINAL SINGLE DUCT VAV REHEAT 22, Reheat Coil Sizing Air Volume Flow Rate [m3/s], 0.16897
 Component Sizing Information, Coil:Heating:Water, COIL HEATING WATER 23, Maximum Water Flow Rate [m3/s], 1.24668E-004
 Component Sizing Information, Coil:Heating:Water, COIL HEATING WATER 23, Design Coil Load [W], 5738.50801
 Component Sizing Information, Coil:Heating:Water, COIL HEATING WATER 23, U-Factor Times Area Value [W/K], 273.90856
Water Heating Coil Capacity Information,Coil:Heating:Water,COIL HEATING WATER 23,8798.48
 Component Sizing Information, AirTerminal:SingleDuct:VAV:Reheat, AIR TERMINAL SINGLE DUCT VAV REHEAT 21, Maximum Air Flow Rate [m3/s], 0.86136
 Component Sizing Information, AirTerminal:SingleDuct:VAV:Reheat, AIR TERMINAL SINGLE DUCT VAV REHEAT 21, Maximum Flow per Zone Floor Area during Reheat [m3/s-m2], 1.73510E-003
 Component Sizing Information, AirTerminal:SingleDuct:VAV:Reheat, AIR TERMINAL SINGLE DUCT VAV REHEAT 21, Maximum Flow Fraction during Reheat [], 1.00000
 Component Sizing Information, AirTerminal:SingleDuct:VAV:Reheat, AIR TERMINAL SINGLE DUCT VAV REHEAT 21, Maximum Reheat Water Flow Rate [m3/s], 1.90658E-004
 Component Sizing Information, AirTerminal:SingleDuct:VAV:Reheat, AIR TERMINAL SINGLE DUCT VAV REHEAT 21, Reheat Coil Sizing Air Volume Flow Rate [m3/s], 0.25841
 Component Sizing Information, Coil:Heating:Water, COIL HEATING WATER 22, Maximum Water Flow Rate [m3/s], 1.90658E-004
 Component Sizing Information, Coil:Heating:Water, COIL HEATING WATER 22, Design Coil Load [W], 8776.03913
 Component Sizing Information, Coil:Heating:Water, COIL HEATING WATER 22, U-Factor Times Area Value [W/K], 612.66932
Water Heating Coil Capacity Information,Coil:Heating:Water,COIL HEATING WATER 22,15712.00
 Component Sizing Information, AirTerminal:SingleDuct:VAV:Reheat, AIR TERMINAL SINGLE DUCT VAV REHEAT 25, Maximum Air Flow Rate [m3/s], 0.20529
 Component Sizing Information, AirTerminal:SingleDuct:VAV:Reheat, AIR TERMINAL SINGLE DUCT VAV REHEAT 25, Maximum Flow per Zone Floor Area during Reheat [m3/s-m2], 2.03200E-003
 Component Sizing Information, AirTerminal:SingleDuct:VAV:Reheat, AIR TERMINAL SINGLE DUCT VAV REHEAT 25, Maximum Flow Fraction during Reheat [], 0.75070
 Component Sizing Information, AirTerminal:SingleDuct:VAV:Reheat, AIR TERMINAL SINGLE DUCT VAV REHEAT 25, Maximum Reheat Water Flow Rate [m3/s], 1.51467E-004
 Component Sizing Information, AirTerminal:SingleDuct:VAV:Reheat, AIR TERMINAL SINGLE DUCT VAV REHEAT 25, Reheat Coil Sizing Air Volume Flow Rate [m3/s], 0.20529
 Component Sizing Information, Coil:Heating:Water, COIL HEATING WATER 26, Maximum Water Flow Rate [m3/s], 1.51467E-004
 Component Sizing Information, Coil:Heating:Water, COIL HEATING WATER 26, Design Coil Load [W], 6972.07567
 Component Sizing Information, Coil:Heating:Water, COIL HEATING WATER 26, U-Factor Times Area Value [W/K], 146.01952
Water Heating Coil Capacity Information,Coil:Heating:Water,COIL HEATING WATER 26,6604.42
 Component Sizing Information, AirTerminal:SingleDuct:VAV:Reheat, AIR TERMINAL SINGLE DUCT VAV REHEAT 7, Maximum Air Flow Rate [m3/s], 0.25585
 Component Sizing Information, AirTerminal:SingleDuct:VAV:Reheat, AIR TERMINAL SINGLE DUCT VAV REHEAT 7, Maximum Flow per Zone Floor Area during Reheat [m3/s-m2], 2.03200E-003
 Component Sizing Information, AirTerminal:SingleDuct:VAV:Reheat, AIR TERMINAL SINGLE DUCT VAV REHEAT 7, Maximum Flow Fraction during Reheat [], 0.60235
 Component Sizing Information, AirTerminal:SingleDuct:VAV:Reheat, AIR TERMINAL SINGLE DUCT VAV REHEAT 7, Maximum Reheat Water Flow Rate [m3/s], 1.51355E-004
 Component Sizing Information, AirTerminal:SingleDuct:VAV:Reheat, AIR TERMINAL SINGLE DUCT VAV REHEAT 7, Reheat Coil Sizing Air Volume Flow Rate [m3/s], 0.20514
 Component Sizing Information, Coil:Heating:Water, COIL HEATING WATER 8, Maximum Water Flow Rate [m3/s], 1.51355E-004
 Component Sizing Information, Coil:Heating:Water, COIL HEATING WATER 8, Design Coil Load [W], 6966.92606
 Component Sizing Information, Coil:Heating:Water, COIL HEATING WATER 8, U-Factor Times Area Value [W/K], 181.98316
Water Heating Coil Capacity Information,Coil:Heating:Water,COIL HEATING WATER 8,7644.59
 Component Sizing Information, AirTerminal:SingleDuct:VAV:Reheat, AIR TERMINAL SINGLE DUCT VAV REHEAT 23, Maximum Air Flow Rate [m3/s], 0.37432
 Component Sizing Information, AirTerminal:SingleDuct:VAV:Reheat, AIR TERMINAL SINGLE DUCT VAV REHEAT 23, Maximum Flow per Zone Floor Area during Reheat [m3/s-m2], 2.03200E-003
 Component Sizing Information, AirTerminal:SingleDuct:VAV:Reheat, AIR TERMINAL SINGLE DUCT VAV REHEAT 23, Maximum Flow Fraction during Reheat [], 0.41171
 Component Sizing Information, AirTerminal:SingleDuct:VAV:Reheat, AIR TERMINAL SINGLE DUCT VAV REHEAT 23, Maximum Reheat Water Flow Rate [m3/s], 1.69251E-004
 Component Sizing Information, AirTerminal:SingleDuct:VAV:Reheat, AIR TERMINAL SINGLE DUCT VAV REHEAT 23, Reheat Coil Sizing Air Volume Flow Rate [m3/s], 0.22939
 Component Sizing Information, Coil:Heating:Water, COIL HEATING WATER 24, Maximum Water Flow Rate [m3/s], 1.69251E-004
 Component Sizing Information, Coil:Heating:Water, COIL HEATING WATER 24, Design Coil Load [W], 7790.69244
 Component Sizing Information, Coil:Heating:Water, COIL HEATING WATER 24, U-Factor Times Area Value [W/K], 266.24833
Water Heating Coil Capacity Information,Coil:Heating:Water,COIL HEATING WATER 24,10051.15
 Component Sizing Information, AirTerminal:SingleDuct:VAV:Reheat, AIR TERMINAL SINGLE DUCT VAV REHEAT 16, Maximum Air Flow Rate [m3/s], 0.37795
 Component Sizing Information, AirTerminal:SingleDuct:VAV:Reheat, AIR TERMINAL SINGLE DUCT VAV REHEAT 16, Maximum Flow per Zone Floor Area during Reheat [m3/s-m2], 2.03200E-003
 Component Sizing Information, AirTerminal:SingleDuct:VAV:Reheat, AIR TERMINAL SINGLE DUCT VAV REHEAT 16, Maximum Flow Fraction during Reheat [], 0.40776
 Component Sizing Information, AirTerminal:SingleDuct:VAV:Reheat, AIR TERMINAL SINGLE DUCT VAV REHEAT 16, Maximum Reheat Water Flow Rate [m3/s], 1.69251E-004
 Component Sizing Information, AirTerminal:SingleDuct:VAV:Reheat, AIR TERMINAL SINGLE DUCT VAV REHEAT 16, Reheat Coil Sizing Air Volume Flow Rate [m3/s], 0.22939
 Component Sizing Information, Coil:Heating:Water, COIL HEATING WATER 17, Maximum Water Flow Rate [m3/s], 1.69251E-004
 Component Sizing Information, Coil:Heating:Water, COIL HEATING WATER 17, Design Coil Load [W], 7790.69244
 Component Sizing Information, Coil:Heating:Water, COIL HEATING WATER 17, U-Factor Times Area Value [W/K], 268.82820
Water Heating Coil Capacity Information,Coil:Heating:Water,COIL HEATING WATER 17,10105.99
 Component Sizing Information, AirTerminal:SingleDuct:VAV:Reheat, AIR TERMINAL SINGLE DUCT VAV REHEAT 18, Maximum Air Flow Rate [m3/s], 0.16999
 Component Sizing Information, AirTerminal:SingleDuct:VAV:Reheat, AIR TERMINAL SINGLE DUCT VAV REHEAT 18, Maximum Flow per Zone Floor Area during Reheat [m3/s-m2], 2.03200E-003
 Component Sizing Information, AirTerminal:SingleDuct:VAV:Reheat, AIR TERMINAL SINGLE DUCT VAV REHEAT 18, Maximum Flow Fraction during Reheat [], 0.90658
 Component Sizing Information, AirTerminal:SingleDuct:VAV:Reheat, AIR TERMINAL SINGLE DUCT VAV REHEAT 18, Maximum Reheat Water Flow Rate [m3/s], 1.24589E-004
 Component Sizing Information, AirTerminal:SingleDuct:VAV:Reheat, AIR TERMINAL SINGLE DUCT VAV REHEAT 18, Reheat Coil Sizing Air Volume Flow Rate [m3/s], 0.16886
 Component Sizing Information, Coil:Heating:Water, COIL HEATING WATER 19, Maximum Water Flow Rate [m3/s], 1.24589E-004
 Component Sizing Information, Coil:Heating:Water, COIL HEATING WATER 19, Design Coil Load [W], 5734.86445
 Component Sizing Information, Coil:Heating:Water, COIL HEATING WATER 19, U-Factor Times Area Value [W/K], 120.91346
Water Heating Coil Capacity Information,Coil:Heating:Water,COIL HEATING WATER 19,5457.60
 Component Sizing Information, AirTerminal:SingleDuct:VAV:Reheat, AIR TERMINAL SINGLE DUCT VAV REHEAT 4, Maximum Air Flow Rate [m3/s], 0.37908
 Component Sizing Information, AirTerminal:SingleDuct:VAV:Reheat, AIR TERMINAL SINGLE DUCT VAV REHEAT 4, Maximum Flow per Zone Floor Area during Reheat [m3/s-m2], 2.03200E-003
 Component Sizing Information, AirTerminal:SingleDuct:VAV:Reheat, AIR TERMINAL SINGLE DUCT VAV REHEAT 4, Maximum Flow Fraction during Reheat [], 0.40654
 Component Sizing Information, AirTerminal:SingleDuct:VAV:Reheat, AIR TERMINAL SINGLE DUCT VAV REHEAT 4, Maximum Reheat Water Flow Rate [m3/s], 1.26300E-004
 Component Sizing Information, AirTerminal:SingleDuct:VAV:Reheat, AIR TERMINAL SINGLE DUCT VAV REHEAT 4, Reheat Coil Sizing Air Volume Flow Rate [m3/s], 0.17118
 Component Sizing Information, Coil:Heating:Water, COIL HEATING WATER 5, Maximum Water Flow Rate [m3/s], 1.26300E-004
 Component Sizing Information, Coil:Heating:Water, COIL HEATING WATER 5, Design Coil Load [W], 5813.63953
 Component Sizing Information, Coil:Heating:Water, COIL HEATING WATER 5, U-Factor Times Area Value [W/K], 269.63301
Water Heating Coil Capacity Information,Coil:Heating:Water,COIL HEATING WATER 5,8793.85
 Component Sizing Information, AirTerminal:SingleDuct:VAV:Reheat, AIR TERMINAL SINGLE DUCT VAV REHEAT 8, Maximum Air Flow Rate [m3/s], 0.40456
 Component Sizing Information, AirTerminal:SingleDuct:VAV:Reheat, AIR TERMINAL SINGLE DUCT VAV REHEAT 8, Maximum Flow per Zone Floor Area during Reheat [m3/s-m2], 8.14935E-004
 Component Sizing Information, AirTerminal:SingleDuct:VAV:Reheat, AIR TERMINAL SINGLE DUCT VAV REHEAT 8, Maximum Flow Fraction during Reheat [], 1.00000
 Component Sizing Information, AirTerminal:SingleDuct:VAV:Reheat, AIR TERMINAL SINGLE DUCT VAV REHEAT 8, Maximum Reheat Water Flow Rate [m3/s], 2.16648E-004
 Component Sizing Information, AirTerminal:SingleDuct:VAV:Reheat, AIR TERMINAL SINGLE DUCT VAV REHEAT 8, Reheat Coil Sizing Air Volume Flow Rate [m3/s], 0.29363
 Component Sizing Information, Coil:Heating:Water, COIL HEATING WATER 9, Maximum Water Flow Rate [m3/s], 2.16648E-004
 Component Sizing Information, Coil:Heating:Water, COIL HEATING WATER 9, Design Coil Load [W], 9972.37815
 Component Sizing Information, Coil:Heating:Water, COIL HEATING WATER 9, U-Factor Times Area Value [W/K], 287.75680
Water Heating Coil Capacity Information,Coil:Heating:Water,COIL HEATING WATER 9,11645.19
 Component Sizing Information, AirTerminal:SingleDuct:VAV:Reheat, AIR TERMINAL SINGLE DUCT VAV REHEAT 13, Maximum Air Flow Rate [m3/s], 0.32820
 Component Sizing Information, AirTerminal:SingleDuct:VAV:Reheat, AIR TERMINAL SINGLE DUCT VAV REHEAT 13, Maximum Flow per Zone Floor Area during Reheat [m3/s-m2], 2.03200E-003
 Component Sizing Information, AirTerminal:SingleDuct:VAV:Reheat, AIR TERMINAL SINGLE DUCT VAV REHEAT 13, Maximum Flow Fraction during Reheat [], 0.46956
 Component Sizing Information, AirTerminal:SingleDuct:VAV:Reheat, AIR TERMINAL SINGLE DUCT VAV REHEAT 13, Maximum Reheat Water Flow Rate [m3/s], 1.51467E-004
 Component Sizing Information, AirTerminal:SingleDuct:VAV:Reheat, AIR TERMINAL SINGLE DUCT VAV REHEAT 13, Reheat Coil Sizing Air Volume Flow Rate [m3/s], 0.20529
 Component Sizing Information, Coil:Heating:Water, COIL HEATING WATER 14, Maximum Water Flow Rate [m3/s], 1.51467E-004
 Component Sizing Information, Coil:Heating:Water, COIL HEATING WATER 14, Design Coil Load [W], 6972.07567
 Component Sizing Information, Coil:Heating:Water, COIL HEATING WATER 14, U-Factor Times Area Value [W/K], 233.44722
Water Heating Coil Capacity Information,Coil:Heating:Water,COIL HEATING WATER 14,8891.01
 Component Sizing Information, AirTerminal:SingleDuct:VAV:Reheat, AIR TERMINAL SINGLE DUCT VAV REHEAT 5, Maximum Air Flow Rate [m3/s], 0.27571
 Component Sizing Information, AirTerminal:SingleDuct:VAV:Reheat, AIR TERMINAL SINGLE DUCT VAV REHEAT 5, Maximum Flow per Zone Floor Area during Reheat [m3/s-m2], 2.03200E-003
 Component Sizing Information, AirTerminal:SingleDuct:VAV:Reheat, AIR TERMINAL SINGLE DUCT VAV REHEAT 5, Maximum Flow Fraction during Reheat [], 0.55897
 Component Sizing Information, AirTerminal:SingleDuct:VAV:Reheat, AIR TERMINAL SINGLE DUCT VAV REHEAT 5, Maximum Reheat Water Flow Rate [m3/s], 1.51355E-004
 Component Sizing Information, AirTerminal:SingleDuct:VAV:Reheat, AIR TERMINAL SINGLE DUCT VAV REHEAT 5, Reheat Coil Sizing Air Volume Flow Rate [m3/s], 0.20514
 Component Sizing Information, Coil:Heating:Water, COIL HEATING WATER 6, Maximum Water Flow Rate [m3/s], 1.51355E-004
 Component Sizing Information, Coil:Heating:Water, COIL HEATING WATER 6, Design Coil Load [W], 6966.92606
 Component Sizing Information, Coil:Heating:Water, COIL HEATING WATER 6, U-Factor Times Area Value [W/K], 196.10688
Water Heating Coil Capacity Information,Coil:Heating:Water,COIL HEATING WATER 6,8012.30
 Component Sizing Information, AirTerminal:SingleDuct:VAV:Reheat, AIR TERMINAL SINGLE DUCT VAV REHEAT 26, Maximum Air Flow Rate [m3/s], 0.39217
 Component Sizing Information, AirTerminal:SingleDuct:VAV:Reheat, AIR TERMINAL SINGLE DUCT VAV REHEAT 26, Maximum Flow per Zone Floor Area during Reheat [m3/s-m2], 2.03200E-003
 Component Sizing Information, AirTerminal:SingleDuct:VAV:Reheat, AIR TERMINAL SINGLE DUCT VAV REHEAT 26, Maximum Flow Fraction during Reheat [], 0.39297
 Component Sizing Information, AirTerminal:SingleDuct:VAV:Reheat, AIR TERMINAL SINGLE DUCT VAV REHEAT 26, Maximum Reheat Water Flow Rate [m3/s], 1.25970E-004
 Component Sizing Information, AirTerminal:SingleDuct:VAV:Reheat, AIR TERMINAL SINGLE DUCT VAV REHEAT 26, Reheat Coil Sizing Air Volume Flow Rate [m3/s], 0.17073
 Component Sizing Information, Coil:Heating:Water, COIL HEATING WATER 27, Maximum Water Flow Rate [m3/s], 1.25970E-004
 Component Sizing Information, Coil:Heating:Water, COIL HEATING WATER 27, Design Coil Load [W], 5798.43269
 Component Sizing Information, Coil:Heating:Water, COIL HEATING WATER 27, U-Factor Times Area Value [W/K], 278.94798
Water Heating Coil Capacity Information,Coil:Heating:Water,COIL HEATING WATER 27,8922.86
 Component Sizing Information, AirTerminal:SingleDuct:VAV:Reheat, AIR TERMINAL SINGLE DUCT VAV REHEAT 6, Maximum Air Flow Rate [m3/s], 0.79958
 Component Sizing Information, AirTerminal:SingleDuct:VAV:Reheat, AIR TERMINAL SINGLE DUCT VAV REHEAT 6, Maximum Flow per Zone Floor Area during Reheat [m3/s-m2], 1.61066E-003
 Component Sizing Information, AirTerminal:SingleDuct:VAV:Reheat, AIR TERMINAL SINGLE DUCT VAV REHEAT 6, Maximum Flow Fraction during Reheat [], 1.00000
 Component Sizing Information, AirTerminal:SingleDuct:VAV:Reheat, AIR TERMINAL SINGLE DUCT VAV REHEAT 6, Maximum Reheat Water Flow Rate [m3/s], 1.76985E-004
 Component Sizing Information, AirTerminal:SingleDuct:VAV:Reheat, AIR TERMINAL SINGLE DUCT VAV REHEAT 6, Reheat Coil Sizing Air Volume Flow Rate [m3/s], 0.23987
 Component Sizing Information, Coil:Heating:Water, COIL HEATING WATER 7, Maximum Water Flow Rate [m3/s], 1.76985E-004
 Component Sizing Information, Coil:Heating:Water, COIL HEATING WATER 7, Design Coil Load [W], 8146.65488
 Component Sizing Information, Coil:Heating:Water, COIL HEATING WATER 7, U-Factor Times Area Value [W/K], 568.73100
Water Heating Coil Capacity Information,Coil:Heating:Water,COIL HEATING WATER 7,14585.20
 Component Sizing Information, AirTerminal:SingleDuct:VAV:Reheat, AIR TERMINAL SINGLE DUCT VAV REHEAT 14, Maximum Air Flow Rate [m3/s], 0.39130
 Component Sizing Information, AirTerminal:SingleDuct:VAV:Reheat, AIR TERMINAL SINGLE DUCT VAV REHEAT 14, Maximum Flow per Zone Floor Area during Reheat [m3/s-m2], 2.03200E-003
 Component Sizing Information, AirTerminal:SingleDuct:VAV:Reheat, AIR TERMINAL SINGLE DUCT VAV REHEAT 14, Maximum Flow Fraction during Reheat [], 0.39384
 Component Sizing Information, AirTerminal:SingleDuct:VAV:Reheat, AIR TERMINAL SINGLE DUCT VAV REHEAT 14, Maximum Reheat Water Flow Rate [m3/s], 1.24668E-004
 Component Sizing Information, AirTerminal:SingleDuct:VAV:Reheat, AIR TERMINAL SINGLE DUCT VAV REHEAT 14, Reheat Coil Sizing Air Volume Flow Rate [m3/s], 0.16897
 Component Sizing Information, Coil:Heating:Water, COIL HEATING WATER 15, Maximum Water Flow Rate [m3/s], 1.24668E-004
 Component Sizing Information, Coil:Heating:Water, COIL HEATING WATER 15, Design Coil Load [W], 5738.50801
 Component Sizing Information, Coil:Heating:Water, COIL HEATING WATER 15, U-Factor Times Area Value [W/K], 278.32894
Water Heating Coil Capacity Information,Coil:Heating:Water,COIL HEATING WATER 15,8864.08
 Component Sizing Information, AirTerminal:SingleDuct:VAV:Reheat, AIR TERMINAL SINGLE DUCT VAV REHEAT 20, Maximum Air Flow Rate [m3/s], 0.44595
 Component Sizing Information, AirTerminal:SingleDuct:VAV:Reheat, AIR TERMINAL SINGLE DUCT VAV REHEAT 20, Maximum Flow per Zone Floor Area during Reheat [m3/s-m2], 2.03200E-003
 Component Sizing Information, AirTerminal:SingleDuct:VAV:Reheat, AIR TERMINAL SINGLE DUCT VAV REHEAT 20, Maximum Flow Fraction during Reheat [], 0.34558
 Component Sizing Information, AirTerminal:SingleDuct:VAV:Reheat, AIR TERMINAL SINGLE DUCT VAV REHEAT 20, Maximum Reheat Water Flow Rate [m3/s], 1.24589E-004
 Component Sizing Information, AirTerminal:SingleDuct:VAV:Reheat, AIR TERMINAL SINGLE DUCT VAV REHEAT 20, Reheat Coil Sizing Air Volume Flow Rate [m3/s], 0.16886
 Component Sizing Information, Coil:Heating:Water, COIL HEATING WATER 21, Maximum Water Flow Rate [m3/s], 1.24589E-004
 Component Sizing Information, Coil:Heating:Water, COIL HEATING WATER 21, Design Coil Load [W], 5734.86445
 Component Sizing Information, Coil:Heating:Water, COIL HEATING WATER 21, U-Factor Times Area Value [W/K], 317.19430
Water Heating Coil Capacity Information,Coil:Heating:Water,COIL HEATING WATER 21,9387.10
 Component Sizing Information, AirTerminal:SingleDuct:VAV:Reheat, AIR TERMINAL SINGLE DUCT VAV REHEAT 11, Maximum Air Flow Rate [m3/s], 0.43944
 Component Sizing Information, AirTerminal:SingleDuct:VAV:Reheat, AIR TERMINAL SINGLE DUCT VAV REHEAT 11, Maximum Flow per Zone Floor Area during Reheat [m3/s-m2], 2.03200E-003
 Component Sizing Information, AirTerminal:SingleDuct:VAV:Reheat, AIR TERMINAL SINGLE DUCT VAV REHEAT 11, Maximum Flow Fraction during Reheat [], 0.35070
 Component Sizing Information, AirTerminal:SingleDuct:VAV:Reheat, AIR TERMINAL SINGLE DUCT VAV REHEAT 11, Maximum Reheat Water Flow Rate [m3/s], 1.69084E-004
 Component Sizing Information, AirTerminal:SingleDuct:VAV:Reheat, AIR TERMINAL SINGLE DUCT VAV REHEAT 11, Reheat Coil Sizing Air Volume Flow Rate [m3/s], 0.22917
 Component Sizing Information, Coil:Heating:Water, COIL HEATING WATER 12, Maximum Water Flow Rate [m3/s], 1.69084E-004
 Component Sizing Information, Coil:Heating:Water, COIL HEATING WATER 12, Design Coil Load [W], 7783.00952
 Component Sizing Information, Coil:Heating:Water, COIL HEATING WATER 12, U-Factor Times Area Value [W/K], 312.56915
Water Heating Coil Capacity Information,Coil:Heating:Water,COIL HEATING WATER 12,10959.67
 Component Sizing Information, AirTerminal:SingleDuct:VAV:Reheat, AIR TERMINAL SINGLE DUCT VAV REHEAT 9, Maximum Air Flow Rate [m3/s], 0.85056
 Component Sizing Information, AirTerminal:SingleDuct:VAV:Reheat, AIR TERMINAL SINGLE DUCT VAV REHEAT 9, Maximum Flow per Zone Floor Area during Reheat [m3/s-m2], 1.71335E-003
 Component Sizing Information, AirTerminal:SingleDuct:VAV:Reheat, AIR TERMINAL SINGLE DUCT VAV REHEAT 9, Maximum Flow Fraction during Reheat [], 1.00000
 Component Sizing Information, AirTerminal:SingleDuct:VAV:Reheat, AIR TERMINAL SINGLE DUCT VAV REHEAT 9, Maximum Reheat Water Flow Rate [m3/s], 1.88268E-004
 Component Sizing Information, AirTerminal:SingleDuct:VAV:Reheat, AIR TERMINAL SINGLE DUCT VAV REHEAT 9, Reheat Coil Sizing Air Volume Flow Rate [m3/s], 0.25517
 Component Sizing Information, Coil:Heating:Water, COIL HEATING WATER 10, Maximum Water Flow Rate [m3/s], 1.88268E-004
 Component Sizing Information, Coil:Heating:Water, COIL HEATING WATER 10, Design Coil Load [W], 8666.04815
[...]
 Warmup Convergence Information,THERMAL ZONE 6,SizingPeriod: SAN FRANCISCO INTL AP ANN CLG .4% CONDNS WB=>MDB,5.1301959926E-002,9.2747485086E-002,Pass,Pass,1.5019389808E-002,2.2207850581E-002,Pass,Pass
 Warmup Convergence Information,THERMAL ZONE 9,SizingPeriod: SAN FRANCISCO INTL AP ANN CLG .4% CONDNS WB=>MDB,6.3347166883E-002,8.8772470836E-002,Pass,Pass,2.2729446946E-002,2.0140767273E-002,Pass,Pass
 Warmup Convergence Information,THERMAL ZONE 8,SizingPeriod: SAN FRANCISCO INTL AP ANN CLG .4% CONDNS WB=>MDB,1.2690932292E-004,3.1703912283E-004,Pass,Pass,3.5852931286E-003,1.1322221071E-002,Pass,Pass
 Warmup Convergence Information,THERMAL ZONE 2,SizingPeriod: SAN FRANCISCO INTL AP ANN CLG .4% CONDNS WB=>MDB,7.9836742924E-002,7.6185099456E-002,Pass,Pass,1.2918869575E-002,2.1985363859E-002,Pass,Pass
 Warmup Convergence Information,THERMAL ZONE 22,SizingPeriod: SAN FRANCISCO INTL AP ANN CLG .4% CONDNS WB=>MDB,8.3566719837E-002,0.1206925917,Pass,Pass,3.4590160352E-002,4.6040131841E-002,Pass,Pass
 Warmup Convergence Information,THERMAL ZONE 13,SizingPeriod: SAN FRANCISCO INTL AP ANN CLG .4% CONDNS WB=>MDB,7.2824522498E-002,0.1015228115,Pass,Pass,2.3139195750E-002,2.1503281060E-002,Pass,Pass
 Warmup Convergence Information,THERMAL ZONE 20,SizingPeriod: SAN FRANCISCO INTL AP ANN CLG .4% CONDNS WB=>MDB,7.6231439439E-002,0.1508960753,Pass,Pass,2.2452775982E-002,2.5559241693E-002,Pass,Pass
 Warmup Convergence Information,THERMAL ZONE 3,SizingPeriod: SAN FRANCISCO INTL AP ANN CLG .4% CONDNS WB=>MDB,2.1458581696E-002,6.0681482330E-002,Pass,Pass,2.0243491950E-002,4.0457970443E-002,Pass,Pass
 Warmup Convergence Information,THERMAL ZONE 4,SizingPeriod: SAN FRANCISCO INTL AP ANN CLG .4% CONDNS WB=>MDB,7.4454739822E-002,0.1429422620,Pass,Pass,2.2615679570E-002,2.5624196195E-002,Pass,Pass
 Warmup Convergence Information,THERMAL ZONE 21,SizingPeriod: SAN FRANCISCO INTL AP ANN CLG .4% CONDNS WB=>MDB,9.4361982851E-005,2.1809657910E-004,Pass,Pass,1.8281806190E-002,3.9936248570E-002,Pass,Pass
 Warmup Convergence Information,THERMAL ZONE 23,SizingPeriod: SAN FRANCISCO INTL AP ANN CLG .4% CONDNS WB=>MDB,8.3617456131E-002,0.1200915209,Pass,Pass,3.9688128314E-002,5.8259273199E-002,Pass,Pass
 Warmup Convergence Information,THERMAL ZONE 1,SizingPeriod: SAN FRANCISCO INTL AP ANN CLG .4% CONDNS WB=>MDB,8.3599920475E-002,0.1776638172,Pass,Pass,3.6253105135E-002,4.7048199944E-002,Pass,Pass
 Warmup Convergence Information,THERMAL ZONE 7,SizingPeriod: SAN FRANCISCO INTL AP ANN CLG .4% CONDNS WB=>MDB,6.7898438452E-002,0.1358462339,Pass,Pass,2.2214583911E-002,2.5597210811E-002,Pass,Pass
 Warmup Convergence Information,THERMAL ZONE 10,SizingPeriod: SAN FRANCISCO INTL AP ANN CLG .4% CONDNS WB=>MDB,1.2537607466E-004,3.0335481762E-004,Pass,Pass,4.2523555572E-003,1.2214813036E-002,Pass,Pass
 Warmup Convergence Information,THERMAL ZONE 18,SizingPeriod: SAN FRANCISCO INTL AP ANN CLG .4% CONDNS WB=>MDB,6.8263581294E-002,0.1362752646,Pass,Pass,2.2268829290E-002,2.5402910650E-002,Pass,Pass
 Warmup Convergence Information,THERMAL ZONE 17,SizingPeriod: SAN FRANCISCO INTL AP ANN CLG .4% CONDNS WB=>MDB,6.7210140535E-002,7.7013800484E-002,Pass,Pass,2.3489920273E-002,2.7797665618E-002,Pass,Pass
 Warmup Convergence Information,THERMAL ZONE 19,SizingPeriod: SAN FRANCISCO INTL AP ANN CLG .4% CONDNS WB=>MDB,7.7871570132E-002,9.0981264898E-002,Pass,Pass,2.4144523895E-002,2.8797556916E-002,Pass,Pass
 Warmup Convergence Information,THERMAL ZONE 11,SizingPeriod: SAN FRANCISCO INTL AP ANN CLG .4% CONDNS WB=>MDB,1.3089703970E-004,3.2188506413E-004,Pass,Pass,3.5767437913E-003,1.1457355242E-002,Pass,Pass
 Warmup Convergence Information,THERMAL ZONE 14,SizingPeriod: SAN FRANCISCO INTL AP ANN CLG .4% CONDNS WB=>MDB,3.0284959961E-002,6.5994629884E-002,Pass,Pass,1.8870594889E-002,4.4595959471E-002,Pass,Pass
 Warmup Convergence Information,THERMAL ZONE 12,SizingPeriod: SAN FRANCISCO INTL AP ANN CLG .4% CONDNS WB=>MDB,7.3487617379E-002,8.3542336080E-002,Pass,Pass,2.3874735567E-002,2.8608405888E-002,Pass,Pass
 Warmup Convergence Information,THERMAL ZONE 15,SizingPeriod: SAN FRANCISCO INTL AP ANN CLG .4% CONDNS WB=>MDB,6.7126356643E-002,7.7070465789E-002,Pass,Pass,2.3469476167E-002,2.7801457374E-002,Pass,Pass
 Warmup Convergence Information,THERMAL ZONE 5,SizingPeriod: SAN FRANCISCO INTL AP ANN CLG .4% CONDNS WB=>MDB,1.2921352323E-004,3.4689395293E-004,Pass,Pass,8.1644045449E-003,3.0628539223E-002,Pass,Pass
 Warmup Convergence Information,THERMAL ZONE 24,SizingPeriod: SAN FRANCISCO INTL AP ANN CLG .4% CONDNS WB=>MDB,2.1708686835E-002,6.0932037558E-002,Pass,Pass,2.0180353663E-002,4.0243892217E-002,Pass,Pass
Environment,SAN FRANCISCO INTL AP ANN HUM_N 99% CONDNS DP=>MCDB,SizingPeriod:DesignDay,01/21,01/21,WinterDesignDay,1,N/A,N/A,N/A,N/A,N/A,N/A
Environment:Daylight Saving,No,SizingPeriod:DesignDay
Environment:Design Day Data,11.20,0.00,DefaultMultipliers,101301,150,2.2,0.00,No ,No 
Environment:Design_Day_Misc, 21,1229.0,0.1415,5.7310E-002,1.0,-11.15,-20.1,ASHRAEClearSky
Environment:WarmupDays,  6
 Warmup Convergence Information,THERMAL ZONE 25,SizingPeriod: SAN FRANCISCO INTL AP ANN HUM_N 99% CONDNS DP=>MCDB,2.4765931994E-004,7.9887990788E-004,Pass,Pass,5.7756550198E-003,3.8267821009E-002,Pass,Pass
 Warmup Convergence Information,THERMAL ZONE 16,SizingPeriod: SAN FRANCISCO INTL AP ANN HUM_N 99% CONDNS DP=>MCDB,2.7669741209E-003,1.4381315570E-003,Pass,Pass,1.0952953258E-002,3.8628354715E-002,Pass,Pass
 Warmup Convergence Information,THERMAL ZONE 6,SizingPeriod: SAN FRANCISCO INTL AP ANN HUM_N 99% CONDNS DP=>MCDB,3.6009346185E-003,1.0175662369E-003,Pass,Pass,1.1996344596E-002,4.9513755733E-002,Pass,Pass
 Warmup Convergence Information,THERMAL ZONE 9,SizingPeriod: SAN FRANCISCO INTL AP ANN HUM_N 99% CONDNS DP=>MCDB,3.1265307590E-003,1.7316916373E-003,Pass,Pass,1.0351393009E-002,3.9153367969E-002,Pass,Pass
 Warmup Convergence Information,THERMAL ZONE 8,SizingPeriod: SAN FRANCISCO INTL AP ANN HUM_N 99% CONDNS DP=>MCDB,1.9811637535E-004,4.2161874620E-004,Pass,Pass,1.3174146942E-003,3.9001492443E-003,Pass,Pass
 Warmup Convergence Information,THERMAL ZONE 2,SizingPeriod: SAN FRANCISCO INTL AP ANN HUM_N 99% CONDNS DP=>MCDB,1.6403331235E-004,4.8846610671E-004,Pass,Pass,3.9587085701E-003,2.7029672787E-002,Pass,Pass
 Warmup Convergence Information,THERMAL ZONE 22,SizingPeriod: SAN FRANCISCO INTL AP ANN HUM_N 99% CONDNS DP=>MCDB,2.4808583907E-003,2.4094243526E-003,Pass,Pass,6.0302629951E-003,2.7650087684E-002,Pass,Pass
 Warmup Convergence Information,THERMAL ZONE 13,SizingPeriod: SAN FRANCISCO INTL AP ANN HUM_N 99% CONDNS DP=>MCDB,3.3245648831E-003,1.7813003541E-003,Pass,Pass,1.1086469280E-002,5.1152626949E-002,Pass,Pass
 Warmup Convergence Information,THERMAL ZONE 20,SizingPeriod: SAN FRANCISCO INTL AP ANN HUM_N 99% CONDNS DP=>MCDB,1.8069210346E-003,1.7471172063E-003,Pass,Pass,9.6854324243E-003,5.0679676535E-002,Pass,Pass
 Warmup Convergence Information,THERMAL ZONE 3,SizingPeriod: SAN FRANCISCO INTL AP ANN HUM_N 99% CONDNS DP=>MCDB,1.2453246455E-003,1.9420012618E-003,Pass,Pass,7.0744822326E-003,3.9663714228E-002,Pass,Pass
 Warmup Convergence Information,THERMAL ZONE 4,SizingPeriod: SAN FRANCISCO INTL AP ANN HUM_N 99% CONDNS DP=>MCDB,1.2317118930E-003,1.1757964875E-003,Pass,Pass,8.1169621152E-003,3.7534788951E-002,Pass,Pass
 Warmup Convergence Information,THERMAL ZONE 21,SizingPeriod: SAN FRANCISCO INTL AP ANN HUM_N 99% CONDNS DP=>MCDB,6.0114480967E-005,2.2800904270E-004,Pass,Pass,9.0543896242E-005,4.4282755298E-004,Pass,Pass
 Warmup Convergence Information,THERMAL ZONE 23,SizingPeriod: SAN FRANCISCO INTL AP ANN HUM_N 99% CONDNS DP=>MCDB,3.4481353252E-003,1.8506578705E-003,Pass,Pass,8.4866468172E-003,2.6824742858E-002,Pass,Pass
 Warmup Convergence Information,THERMAL ZONE 1,SizingPeriod: SAN FRANCISCO INTL AP ANN HUM_N 99% CONDNS DP=>MCDB,3.5746800113E-003,2.0695549587E-003,Pass,Pass,8.4109819839E-003,2.6698403652E-002,Pass,Pass
 Warmup Convergence Information,THERMAL ZONE 7,SizingPeriod: SAN FRANCISCO INTL AP ANN HUM_N 99% CONDNS DP=>MCDB,1.7415947733E-003,1.2922243300E-003,Pass,Pass,8.0739815601E-003,3.8116510400E-002,Pass,Pass
 Warmup Convergence Information,THERMAL ZONE 10,SizingPeriod: SAN FRANCISCO INTL AP ANN HUM_N 99% CONDNS DP=>MCDB,8.9649168777E-004,6.3408922358E-004,Pass,Pass,1.2782515933E-002,7.2881577648E-003,Pass,Pass
 Warmup Convergence Information,THERMAL ZONE 18,SizingPeriod: SAN FRANCISCO INTL AP ANN HUM_N 99% CONDNS DP=>MCDB,3.1980280096E-003,1.3420074243E-003,Pass,Pass,1.0552777373E-002,3.8801478154E-002,Pass,Pass
 Warmup Convergence Information,THERMAL ZONE 17,SizingPeriod: SAN FRANCISCO INTL AP ANN HUM_N 99% CONDNS DP=>MCDB,2.1251372663E-003,1.8477918508E-003,Pass,Pass,9.3252646187E-003,3.8607637110E-002,Pass,Pass
 Warmup Convergence Information,THERMAL ZONE 19,SizingPeriod: SAN FRANCISCO INTL AP ANN HUM_N 99% CONDNS DP=>MCDB,1.2695253467E-003,1.2223656989E-003,Pass,Pass,9.6497198039E-003,5.0910766820E-002,Pass,Pass
 Warmup Convergence Information,THERMAL ZONE 11,SizingPeriod: SAN FRANCISCO INTL AP ANN HUM_N 99% CONDNS DP=>MCDB,7.2733916843E-004,6.6524810424E-004,Pass,Pass,1.2246133712E-002,1.4149960869E-002,Pass,Pass
 Warmup Convergence Information,THERMAL ZONE 14,SizingPeriod: SAN FRANCISCO INTL AP ANN HUM_N 99% CONDNS DP=>MCDB,1.7022292328E-003,1.5596948351E-003,Pass,Pass,7.4698772083E-003,3.7280759355E-002,Pass,Pass
 Warmup Convergence Information,THERMAL ZONE 12,SizingPeriod: SAN FRANCISCO INTL AP ANN HUM_N 99% CONDNS DP=>MCDB,1.5565616296E-004,6.4156425910E-004,Pass,Pass,5.5203356549E-003,3.7566185904E-002,Pass,Pass
 Warmup Convergence Information,THERMAL ZONE 15,SizingPeriod: SAN FRANCISCO INTL AP ANN HUM_N 99% CONDNS DP=>MCDB,1.6823645339E-004,7.5286022674E-004,Pass,Pass,5.6360223040E-003,3.8313252617E-002,Pass,Pass
 Warmup Convergence Information,THERMAL ZONE 5,SizingPeriod: SAN FRANCISCO INTL AP ANN HUM_N 99% CONDNS DP=>MCDB,1.4595943531E-003,9.3562310646E-004,Pass,Pass,1.8285630444E-002,8.1258727954E-002,Pass,Pass
 Warmup Convergence Information,THERMAL ZONE 24,SizingPeriod: SAN FRANCISCO INTL AP ANN HUM_N 99% CONDNS DP=>MCDB,2.7672296149E-003,1.1381247833E-003,Pass,Pass,9.9448232295E-003,3.7686956903E-002,Pass,Pass
Environment,SAN FRANCISCO INTL AP ANN HTG 99% CONDNS DB,SizingPeriod:DesignDay,01/21,01/21,WinterDesignDay,1,N/A,N/A,N/A,N/A,N/A,N/A
Environment:Daylight Saving,No,SizingPeriod:DesignDay
Environment:Design Day Data,4.90,0.00,DefaultMultipliers,101301,150,2.2,0.00,No ,No 
Environment:Design_Day_Misc, 21,1229.0,0.1415,5.7310E-002,1.0,-11.15,-20.1,ASHRAEClearSky
Environment:WarmupDays,  6
 Warmup Convergence Information,THERMAL ZONE 25,SizingPeriod: SAN FRANCISCO INTL AP ANN HTG 99% CONDNS DB,3.3495616368E-003,5.5042206116E-004,Pass,Pass,1.0728293519E-002,4.0778501733E-002,Pass,Pass
 Warmup Convergence Information,THERMAL ZONE 16,SizingPeriod: SAN FRANCISCO INTL AP ANN HTG 99% CONDNS DB,1.5774299503E-004,5.7235605353E-004,Pass,Pass,6.0416355847E-003,4.1749272912E-002,Pass,Pass
 Warmup Convergence Information,THERMAL ZONE 6,SizingPeriod: SAN FRANCISCO INTL AP ANN HTG 99% CONDNS DB,2.2014314335E-002,8.4504513235E-002,Pass,Pass,5.4227841508E-003,1.9906585527E-002,Pass,Pass
 Warmup Convergence Information,THERMAL ZONE 9,SizingPeriod: SAN FRANCISCO INTL AP ANN HTG 99% CONDNS DB,1.3675992390E-003,1.8285752706E-003,Pass,Pass,8.1157808442E-003,4.1485071107E-002,Pass,Pass
 Warmup Convergence Information,THERMAL ZONE 8,SizingPeriod: SAN FRANCISCO INTL AP ANN HTG 99% CONDNS DB,7.1786087120E-004,5.7804750549E-004,Pass,Pass,7.5999433992E-003,7.4348883151E-003,Pass,Pass
 Warmup Convergence Information,THERMAL ZONE 2,SizingPeriod: SAN FRANCISCO INTL AP ANN HTG 99% CONDNS DB,1.8956994692E-002,6.1378547587E-002,Pass,Pass,2.0386131972E-003,7.5435718083E-003,Pass,Pass
 Warmup Convergence Information,THERMAL ZONE 22,SizingPeriod: SAN FRANCISCO INTL AP ANN HTG 99% CONDNS DB,4.5062090340E-003,1.4131330546E-003,Pass,Pass,9.4209320822E-003,3.2810027978E-002,Pass,Pass
 Warmup Convergence Information,THERMAL ZONE 13,SizingPeriod: SAN FRANCISCO INTL AP ANN HTG 99% CONDNS DB,3.9732224895E-003,2.4746894093E-003,Pass,Pass,1.1200539245E-002,5.3928178281E-002,Pass,Pass
 Warmup Convergence Information,THERMAL ZONE 20,SizingPeriod: SAN FRANCISCO INTL AP ANN HTG 99% CONDNS DB,1.8598414669E-003,2.3412355783E-003,Pass,Pass,9.1677156688E-003,5.3778050313E-002,Pass,Pass
 Warmup Convergence Information,THERMAL ZONE 3,SizingPeriod: SAN FRANCISCO INTL AP ANN HTG 99% CONDNS DB,1.8716700437E-002,6.0736824576E-002,Pass,Pass,3.5886717578E-003,1.1627636631E-002,Pass,Pass
 Warmup Convergence Information,THERMAL ZONE 4,SizingPeriod: SAN FRANCISCO INTL AP ANN HTG 99% CONDNS DB,2.4800799635E-003,1.9288642240E-003,Pass,Pass,8.5326116376E-003,4.1168193040E-002,Pass,Pass
 Warmup Convergence Information,THERMAL ZONE 21,SizingPeriod: SAN FRANCISCO INTL AP ANN HTG 99% CONDNS DB,1.1504595361E-003,8.5157704360E-004,Pass,Pass,3.4666664281E-003,3.3301899304E-003,Pass,Pass
 Warmup Convergence Information,THERMAL ZONE 23,SizingPeriod: SAN FRANCISCO INTL AP ANN HTG 99% CONDNS DB,2.6778615089E-003,2.4611987167E-003,Pass,Pass,7.0975469541E-003,3.2517104444E-002,Pass,Pass
 Warmup Convergence Information,THERMAL ZONE 1,SizingPeriod: SAN FRANCISCO INTL AP ANN HTG 99% CONDNS DB,9.1901243293E-004,1.4725096191E-003,Pass,Pass,5.3810987885E-003,3.2910459938E-002,Pass,Pass
 Warmup Convergence Information,THERMAL ZONE 7,SizingPeriod: SAN FRANCISCO INTL AP ANN HTG 99% CONDNS DB,1.7828050690E-003,1.8306024899E-003,Pass,Pass,7.7479509988E-003,4.0914698764E-002,Pass,Pass
 Warmup Convergence Information,THERMAL ZONE 10,SizingPeriod: SAN FRANCISCO INTL AP ANN HTG 99% CONDNS DB,5.9132051716E-004,4.4345050515E-004,Pass,Pass,6.0237482114E-003,5.4502636618E-003,Pass,Pass
 Warmup Convergence Information,THERMAL ZONE 18,SizingPeriod: SAN FRANCISCO INTL AP ANN HTG 99% CONDNS DB,2.4428663556E-003,1.7268059361E-003,Pass,Pass,9.0027049881E-003,4.1399607888E-002,Pass,Pass
 Warmup Convergence Information,THERMAL ZONE 17,SizingPeriod: SAN FRANCISCO INTL AP ANN HTG 99% CONDNS DB,2.0446371115E-003,2.1020557182E-003,Pass,Pass,8.3590112443E-003,4.1595043936E-002,Pass,Pass
 Warmup Convergence Information,THERMAL ZONE 19,SizingPeriod: SAN FRANCISCO INTL AP ANN HTG 99% CONDNS DB,1.2423192288E-003,1.7943236003E-003,Pass,Pass,8.7550145639E-003,5.4433515252E-002,Pass,Pass
 Warmup Convergence Information,THERMAL ZONE 11,SizingPeriod: SAN FRANCISCO INTL AP ANN HTG 99% CONDNS DB,7.3315316857E-004,5.0396801760E-004,Pass,Pass,1.0198654574E-002,8.7749683511E-003,Pass,Pass
 Warmup Convergence Information,THERMAL ZONE 14,SizingPeriod: SAN FRANCISCO INTL AP ANN HTG 99% CONDNS DB,1.9546920708E-002,6.1901056353E-002,Pass,Pass,2.9534679625E-003,1.0088980979E-002,Pass,Pass
 Warmup Convergence Information,THERMAL ZONE 12,SizingPeriod: SAN FRANCISCO INTL AP ANN HTG 99% CONDNS DB,1.4397629191E-003,1.8227656488E-003,Pass,Pass,7.1232898211E-003,4.0552831090E-002,Pass,Pass
 Warmup Convergence Information,THERMAL ZONE 15,SizingPeriod: SAN FRANCISCO INTL AP ANN HTG 99% CONDNS DB,2.6153925697E-003,2.1047570125E-003,Pass,Pass,8.8749719798E-003,4.1445663425E-002,Pass,Pass
 Warmup Convergence Information,THERMAL ZONE 5,SizingPeriod: SAN FRANCISCO INTL AP ANN HTG 99% CONDNS DB,1.1913341271E-003,9.3545488827E-004,Pass,Pass,1.5699317346E-002,8.6753091729E-002,Pass,Pass
 Warmup Convergence Information,THERMAL ZONE 24,SizingPeriod: SAN FRANCISCO INTL AP ANN HTG 99% CONDNS DB,1.9163150234E-002,6.1199035707E-002,Pass,Pass,3.3241170695E-003,1.0830347677E-002,Pass,Pass
Environment,RUN PERIOD 1,WeatherFileRunPeriod,01/01,12/31,Thursday,365,Use RunPeriod Specified Day,Yes,Yes,No ,Yes,Yes
Environment:Daylight Saving,Yes,InputFile,03/08,11/01
Environment:WarmupDays,  6
 Warmup Convergence Information,THERMAL ZONE 25,RunPeriod: RUN PERIOD 1,8.4123120290E-002,0.1305831340,Pass,Pass,0.1460885600,0.3787029866,Pass,Pass
 Warmup Convergence Information,THERMAL ZONE 16,RunPeriod: RUN PERIOD 1,8.4071035621E-002,0.1300241338,Pass,Pass,0.1695781421,0.4539042638,Pass,Pass
 Warmup Convergence Information,THERMAL ZONE 6,RunPeriod: RUN PERIOD 1,9.3288226886E-003,2.2350037212E-002,Pass,Pass,0.3624199923,1.7331152670,Pass,Pass
 Warmup Convergence Information,THERMAL ZONE 9,RunPeriod: RUN PERIOD 1,8.4279539273E-002,0.1291675449,Pass,Pass,0.9014138828,7.4574308394,Pass,Pass
 Warmup Convergence Information,THERMAL ZONE 8,RunPeriod: RUN PERIOD 1,7.8249141385E-002,0.1839987339,Pass,Pass,2.1091892946E-002,5.3126219611E-002,Pass,Pass
 Warmup Convergence Information,THERMAL ZONE 2,RunPeriod: RUN PERIOD 1,3.9163450502E-003,1.3594091650E-002,Pass,Pass,0.8323256560,6.4236374773,Pass,Pass
 Warmup Convergence Information,THERMAL ZONE 22,RunPeriod: RUN PERIOD 1,8.4468814286E-002,0.1723424020,Pass,Pass,0.1603930362,0.4888837451,Pass,Pass
 Warmup Convergence Information,THERMAL ZONE 13,RunPeriod: RUN PERIOD 1,8.4256847285E-002,0.1282620917,Pass,Pass,8.1626521635E-002,0.1725348223,Pass,Pass
 Warmup Convergence Information,THERMAL ZONE 20,RunPeriod: RUN PERIOD 1,2.9142312117E-002,5.4231353889E-002,Pass,Pass,0.2389474326,1.0966393645,Pass,Pass
 Warmup Convergence Information,THERMAL ZONE 3,RunPeriod: RUN PERIOD 1,3.8102941911E-002,6.9667643929E-002,Pass,Pass,0.2393683329,1.0950482617,Pass,Pass
 Warmup Convergence Information,THERMAL ZONE 4,RunPeriod: RUN PERIOD 1,4.1360925672E-002,7.4857941198E-002,Pass,Pass,8.2730014235E-002,0.1744798590,Pass,Pass
 Warmup Convergence Information,THERMAL ZONE 21,RunPeriod: RUN PERIOD 1,8.8397783717E-002,0.1526788681,Pass,Pass,0.9760398930,8.3215333798,Pass,Pass
 Warmup Convergence Information,THERMAL ZONE 23,RunPeriod: RUN PERIOD 1,4.8036417159E-002,0.1217342210,Pass,Pass,0.2556177416,0.6079004080,Pass,Pass
 Warmup Convergence Information,THERMAL ZONE 1,RunPeriod: RUN PERIOD 1,4.5223918078E-002,9.0758438810E-002,Pass,Pass,0.1144641449,0.3858044445,Pass,Pass
 Warmup Convergence Information,THERMAL ZONE 7,RunPeriod: RUN PERIOD 1,4.1307129655E-002,7.5002799499E-002,Pass,Pass,7.9993811089E-002,0.1690918190,Pass,Pass
 Warmup Convergence Information,THERMAL ZONE 10,RunPeriod: RUN PERIOD 1,8.3641209561E-002,0.1864242155,Pass,Pass,2.5085614694E-002,5.4677887651E-002,Pass,Pass
 Warmup Convergence Information,THERMAL ZONE 18,RunPeriod: RUN PERIOD 1,4.2573024908E-002,7.5700173848E-002,Pass,Pass,7.8721172957E-002,0.1704307383,Pass,Pass
 Warmup Convergence Information,THERMAL ZONE 17,RunPeriod: RUN PERIOD 1,4.1601147760E-002,9.2351236063E-002,Pass,Pass,7.4515387037E-002,0.1277541735,Pass,Pass
 Warmup Convergence Information,THERMAL ZONE 19,RunPeriod: RUN PERIOD 1,3.0353264868E-002,7.9069602798E-002,Pass,Pass,1.0152384597,7.9322872121,Pass,Pass
 Warmup Convergence Information,THERMAL ZONE 11,RunPeriod: RUN PERIOD 1,7.5971091358E-002,0.1875488281,Pass,Pass,2.2709975941E-002,5.9647134735E-002,Pass,Pass
 Warmup Convergence Information,THERMAL ZONE 14,RunPeriod: RUN PERIOD 1,3.4652428495E-002,6.4074833999E-002,Pass,Pass,0.2666359668,1.2564287463,Pass,Pass
 Warmup Convergence Information,THERMAL ZONE 12,RunPeriod: RUN PERIOD 1,4.0374784163E-002,9.1839078947E-002,Pass,Pass,8.7887408104E-002,0.1764558321,Pass,Pass
 Warmup Convergence Information,THERMAL ZONE 15,RunPeriod: RUN PERIOD 1,4.0800972344E-002,9.1895394567E-002,Pass,Pass,7.7568791087E-002,0.1343425465,Pass,Pass
 Warmup Convergence Information,THERMAL ZONE 5,RunPeriod: RUN PERIOD 1,8.7729331753E-002,0.1837800487,Pass,Pass,0.1596029145,0.3489574278,Pass,Pass
 Warmup Convergence Information,THERMAL ZONE 24,RunPeriod: RUN PERIOD 1,3.6685989402E-002,6.6640995003E-002,Pass,Pass,1.0640380686,9.5056128224,Pass,Pass
! <Program Control Information:Threads/Parallel Sims>, Threading Supported,Maximum Number of Threads, Env Set Threads (OMP_NUM_THREADS), EP Env Set Threads (EP_OMP_NUM_THREADS), IDF Set Threads, Number of Threads Used (Interior Radiant Exchange), Number Nominal Surfaces, Number Parallel Sims
Program Control:Threads/Parallel Sims, Yes,1, Not Set, Not Set, 1, 1, 170, N/A
End of Data
