Program Version,EnergyPlus-Linux-OMP-32 7.2.0.006, YMD=2013.03.20 16:41
! <Version>, Version ID
 Version, 7.2
! <Timesteps per Hour>, #TimeSteps, Minutes per TimeStep {minutes}
 Timesteps per Hour,  4, 15
! <System Convergence Limits>, Minimum System TimeStep {minutes}, Max HVAC Iterations,  Minimum Plant Iterations, Maximum Plant Iterations
 System Convergence Limits, 1, 20, 2, 8
! <Simulation Control>, Do Zone Sizing, Do System Sizing, Do Plant Sizing, Do Design Days, Do Weather Simulation
 Simulation Control, Yes, Yes, Yes, Yes, Yes
! <Output Reporting Tolerances>, Tolerance for Time Heating Setpoint Not Met, Tolerance for Time Cooling Setpoint Not Met
 Output Reporting Tolerances, 0.200, 0.200, 
! <Site:GroundTemperature:BuildingSurface>, Months From Jan to Dec {Deg C}
 Site:GroundTemperature:BuildingSurface,  18.00,  18.00,  18.00,  18.00,  18.00,  18.00,  18.00,  18.00,  18.00,  18.00,  18.00,  18.00
! <Site:GroundTemperature:FCfactorMethod>, Months From Jan to Dec {Deg C}
 Site:GroundTemperature:FCfactorMethod,  -1.89,  -3.06,  -0.99,   2.23,  10.68,  17.20,  21.60,  22.94,  20.66,  15.60,   8.83,   2.56
! <Site:GroundTemperature:Shallow>, Months From Jan to Dec {Deg C}
 Site:GroundTemperature:Shallow,  13.00,  13.00,  13.00,  13.00,  13.00,  13.00,  13.00,  13.00,  13.00,  13.00,  13.00,  13.00
! <Site:GroundTemperature:Deep>, Months From Jan to Dec {Deg C}
 Site:GroundTemperature:Deep,  16.00,  16.00,  16.00,  16.00,  16.00,  16.00,  16.00,  16.00,  16.00,  16.00,  16.00,  16.00
! <Site:GroundReflectance>, Months From Jan to Dec {dimensionless}
 Site:GroundReflectance,  0.20,  0.20,  0.20,  0.20,  0.20,  0.20,  0.20,  0.20,  0.20,  0.20,  0.20,  0.20
! <Site:GroundReflectance:SnowModifier>, Normal, Daylighting {dimensionless}
 Site:GroundReflectance:SnowModifier,   1.000,   1.000
! <Site:GroundReflectance:Snow>, Months From Jan to Dec {dimensionless}
 Site:GroundReflectance:Snow,  0.20,  0.20,  0.20,  0.20,  0.20,  0.20,  0.20,  0.20,  0.20,  0.20,  0.20,  0.20
! <Site:GroundReflectance:Snow:Daylighting>, Months From Jan to Dec {dimensionless}
 Site:GroundReflectance:Snow:Daylighting,  0.20,  0.20,  0.20,  0.20,  0.20,  0.20,  0.20,  0.20,  0.20,  0.20,  0.20,  0.20
! <Environment:Weather Station>,Wind Sensor Height Above Ground {m},Wind Speed Profile Exponent {},Wind Speed Profile Boundary Layer Thickness {m},Air Temperature Sensor Height Above Ground {m},Wind Speed Modifier Coefficient [Internal],Temperature Modifier Coefficient [Internal]
Environment:Weather Station,10.000,0.140,270.000,1.500,1.586,9.750E-003
! <Site:Location>, Location Name, Latitude {N+/S- Deg}, Longitude {E+/W- Deg},  Time Zone Number {GMT+/-}, Elevation {m},  Standard Pressure at Elevation {Pa}, Standard RhoAir at Elevation
Site:Location,Chicago Ohare Intl Ap IL USA TMY3 WMO#=725300,41.98,-87.92,-6.00,201.00,98934,1.1759
! <Building Information>, Building Name,North Axis {deg},Terrain,  Loads Convergence Tolerance Value,Temperature Convergence Tolerance Value,  Solar Distribution,Maximum Number of Warmup Days,Minimum Number of Warmup Days
 Building Information,Building 1,0.000,Suburbs,4.00000E-002,0.40000,FullExterior,25,6
! <Inside Convection Algorithm>, Algorithm {Simple | TARP | CeilingDiffuser | AdaptiveConvectionAlgorithm}
Inside Convection Algorithm,TARP
! <Outside Convection Algorithm>, Algorithm {SimpleCombined | TARP | MoWitt | DOE-2 | AdaptiveConvectionAlgorithm}
Outside Convection Algorithm,DOE-2
! <Sky Radiance Distribution>, Value {Anisotropic}
Sky Radiance Distribution,Anisotropic
! <Zone Air Solution Algorithm>, Value {ThirdOrderBackwardDifference | AnalyticalSolution | EulerMethod}
 Zone Air Solution Algorithm, ThirdOrderBackwardDifference
! <Zone Air Contaminant Balance Simulation>, Simulation {Yes/No}, Carbon Dioxide Concentration
 Zone Air Carbon Dioxide Balance Simulation, No,N/A
! <Zone Air Contaminant Balance Simulation>, Simulation {Yes/No}, Generic Contaminant Concentration
 Zone Air Generic Contaminant Balance Simulation, No,N/A
! <Environment:Site Atmospheric Variation>,Wind Speed Profile Exponent {},Wind Speed Profile Boundary Layer Thickness {m},Air Temperature Gradient Coefficient {K/m}
Environment:Site Atmospheric Variation,0.220,370.000,6.500000E-003
! <SurfaceGeometry>,Starting Corner,Vertex Input Direction,Coordinate System,Daylight Reference Point Coordinate System,Rectangular (Simple) Surface Coordinate System
 Surface Geometry,UpperLeftCorner,Counterclockwise,RelativeCoordinateSystem,RelativeCoordinateSystem,RelativeToZoneOrigin
! <Surface Heat Transfer Algorithm>, Value {CTF - ConductionTransferFunction | EMPD - MoisturePenetrationDepthConductionTransferFunction | CondFD - ConductionFiniteDifference | HAMT - CombinedHeatAndMoistureFiniteElement} - Description,Inside Surface Max Temperature Limit{C}, Surface Convection Coefficient Lower Limit {W/m2-K}, Surface Convection Coefficient Upper Limit {W/m2-K}
Surface Heat Transfer Algorithm, CTF - ConductionTransferFunction,200,0.10,1000.0
! <Shading Summary>, Number of Fixed Detached Shades, Number of Building Detached Shades, Number of Attached Shades
 Shading Summary,0,0,0
! <Zone Summary>, Number of Zones, Number of Zone Surfaces, Number of SubSurfaces
 Zone Summary,15,102,12
! <Zone Information>,Zone Name,North Axis {deg},Origin X-Coordinate {m},Origin Y-Coordinate {m},Origin Z-Coordinate {m},Centroid X-Coordinate {m},Centroid Y-Coordinate {m},Centroid Z-Coordinate {m},Type,Zone Multiplier,Zone List Multiplier,Minimum X {m},Maximum X {m},Minimum Y {m},Maximum Y {m},Minimum Z {m},Maximum Z {m},Ceiling Height {m},Volume {m3},Zone Inside Convection Algorithm {Simple-Detailed-CeilingDiffuser-TrombeWall},Zone Outside Convection Algorithm {Simple-Detailed-Tarp-MoWitt-DOE-2-BLAST}, Floor Area {m2},Exterior Gross Wall Area {m2},Exterior Net Wall Area {m2},Exterior Window Area {m2}, Number of Surfaces, Number of SubSurfaces, Number of Shading SubSurfaces,  Part of Total Building Area
 Zone Information, THERMAL ZONE 5,0.0,3.00,3.00,0.00,50.00,25.00,2.00,1,1,1,3.00,97.00,3.00,47.00,0.00,4.00,4.00,16544.00,TARP,DOE-2,4136.00,0.00,0.00,0.00,6,0,0,Yes
 Zone Information, THERMAL ZONE 14,0.0,3.00,47.00,4.00,50.00,48.53,6.00,1,1,1,0.00,100.00,47.00,50.00,4.00,8.00,4.00,1164.00,TARP,DOE-2,291.00,400.00,240.00,160.00,6,1,0,Yes
 Zone Information, THERMAL ZONE 10,0.0,3.00,3.00,4.00,50.00,25.00,6.00,1,1,1,3.00,97.00,3.00,47.00,4.00,8.00,4.00,16544.00,TARP,DOE-2,4136.00,0.00,0.00,0.00,6,0,0,Yes
 Zone Information, THERMAL ZONE 15,0.0,0.00,0.00,0.00,50.00,1.47,2.00,1,1,1,0.00,100.00,0.00,3.00,0.00,4.00,4.00,1164.00,TARP,DOE-2,291.00,400.00,240.00,160.00,6,1,0,Yes
 Zone Information, THERMAL ZONE 8,0.0,3.00,3.00,8.00,50.00,25.00,10.00,1,1,1,3.00,97.00,3.00,47.00,8.00,12.00,4.00,16544.00,TARP,DOE-2,4136.00,0.00,0.00,0.00,6,0,0,Yes
 Zone Information, THERMAL ZONE 3,0.0,3.00,47.00,0.00,50.00,48.53,2.00,1,1,1,0.00,100.00,47.00,50.00,0.00,4.00,4.00,1164.00,TARP,DOE-2,291.00,400.00,240.00,160.00,6,1,0,Yes
 Zone Information, THERMAL ZONE 4,0.0,0.00,0.00,8.00,1.43,25.00,10.00,1,1,1,0.00,3.00,0.00,50.00,8.00,12.00,4.00,564.00,TARP,DOE-2,141.00,200.00,120.00,80.00,6,1,0,Yes
 Zone Information, THERMAL ZONE 12,0.0,3.00,47.00,8.00,50.00,48.53,10.00,1,1,1,0.00,100.00,47.00,50.00,8.00,12.00,4.00,1164.00,TARP,DOE-2,291.00,400.00,240.00,160.00,6,1,0,Yes
 Zone Information, THERMAL ZONE 2,0.0,97.00,3.00,4.00,98.57,25.00,6.00,1,1,1,97.00,100.00,0.00,50.00,4.00,8.00,4.00,564.00,TARP,DOE-2,141.00,200.00,120.00,80.00,6,1,0,Yes
 Zone Information, THERMAL ZONE 9,0.0,97.00,3.00,0.00,98.57,25.00,2.00,1,1,1,97.00,100.00,0.00,50.00,0.00,4.00,4.00,564.00,TARP,DOE-2,141.00,200.00,120.00,80.00,6,1,0,Yes
 Zone Information, THERMAL ZONE 7,0.0,0.00,0.00,0.00,1.43,25.00,2.00,1,1,1,0.00,3.00,0.00,50.00,0.00,4.00,4.00,564.00,TARP,DOE-2,141.00,200.00,120.00,80.00,6,1,0,Yes
 Zone Information, THERMAL ZONE 11,0.0,0.00,0.00,8.00,50.00,1.47,10.00,1,1,1,0.00,100.00,0.00,3.00,8.00,12.00,4.00,1164.00,TARP,DOE-2,291.00,400.00,240.00,160.00,6,1,0,Yes
 Zone Information, THERMAL ZONE 6,0.0,97.00,3.00,8.00,98.57,25.00,10.00,1,1,1,97.00,100.00,0.00,50.00,8.00,12.00,4.00,564.00,TARP,DOE-2,141.00,200.00,120.00,80.00,6,1,0,Yes
 Zone Information, THERMAL ZONE 13,0.0,0.00,0.00,4.00,50.00,1.47,6.00,1,1,1,0.00,100.00,0.00,3.00,4.00,8.00,4.00,1164.00,TARP,DOE-2,291.00,400.00,240.00,160.00,6,1,0,Yes
 Zone Information, THERMAL ZONE 1,0.0,0.00,0.00,4.00,1.43,25.00,6.00,1,1,1,0.00,3.00,0.00,50.00,4.00,8.00,4.00,564.00,TARP,DOE-2,141.00,200.00,120.00,80.00,6,1,0,Yes
! <Zone Internal Gains/Equipment Information - Nominal>,Zone Name, Floor Area {m2},# Occupants,Area per Occupant {m2/person},Occupant per Area {person/m2},Interior Lighting {W/m2},Electric Load {W/m2},Gas Load {W/m2},Other Load {W/m2},Hot Water Eq {W/m2},Steam Equipment {W/m2},Sum Loads per Area {W/m2},Outdoor Controlled Baseboard Heat
 Zone Internal Gains, THERMAL ZONE 5,4136.00,0.0,N/A,0.000,0.000,0.000,0.000,0.000,0.000,0.000,0.000,No
 Zone Internal Gains, THERMAL ZONE 14,291.00,0.0,N/A,0.000,0.000,0.000,0.000,0.000,0.000,0.000,0.000,No
 Zone Internal Gains, THERMAL ZONE 10,4136.00,0.0,N/A,0.000,0.000,0.000,0.000,0.000,0.000,0.000,0.000,No
 Zone Internal Gains, THERMAL ZONE 15,291.00,0.0,N/A,0.000,0.000,0.000,0.000,0.000,0.000,0.000,0.000,No
 Zone Internal Gains, THERMAL ZONE 8,4136.00,0.0,N/A,0.000,0.000,0.000,0.000,0.000,0.000,0.000,0.000,No
 Zone Internal Gains, THERMAL ZONE 3,291.00,0.0,N/A,0.000,0.000,0.000,0.000,0.000,0.000,0.000,0.000,No
 Zone Internal Gains, THERMAL ZONE 4,141.00,0.0,N/A,0.000,0.000,0.000,0.000,0.000,0.000,0.000,0.000,No
 Zone Internal Gains, THERMAL ZONE 12,291.00,0.0,N/A,0.000,0.000,0.000,0.000,0.000,0.000,0.000,0.000,No
 Zone Internal Gains, THERMAL ZONE 2,141.00,0.0,N/A,0.000,0.000,0.000,0.000,0.000,0.000,0.000,0.000,No
 Zone Internal Gains, THERMAL ZONE 9,141.00,0.0,N/A,0.000,0.000,0.000,0.000,0.000,0.000,0.000,0.000,No
 Zone Internal Gains, THERMAL ZONE 7,141.00,0.0,N/A,0.000,0.000,0.000,0.000,0.000,0.000,0.000,0.000,No
 Zone Internal Gains, THERMAL ZONE 11,291.00,0.0,N/A,0.000,0.000,0.000,0.000,0.000,0.000,0.000,0.000,No
 Zone Internal Gains, THERMAL ZONE 6,141.00,0.0,N/A,0.000,0.000,0.000,0.000,0.000,0.000,0.000,0.000,No
 Zone Internal Gains, THERMAL ZONE 13,291.00,0.0,N/A,0.000,0.000,0.000,0.000,0.000,0.000,0.000,0.000,No
 Zone Internal Gains, THERMAL ZONE 1,141.00,0.0,N/A,0.000,0.000,0.000,0.000,0.000,0.000,0.000,0.000,No
! <Shadowing/Sun Position Calculations> [Annual Simulations], Value {days}, Allowable Number Figures in Shadow Overlap {}, Polygon Clipping Algorithm, Sky Diffuse Modeling Algorithm
Shadowing/Sun Position Calculations,20,15000,SutherlandHodgman,SimpleSkyDiffuseModeling
! <RoomAir Model>, Zone Name, Mixing/Mundt/UCSDDV/UCSDCV/UCSDUFI/UCSDUFE/User Defined
RoomAir Model,THERMAL ZONE 5,Mixing/Well-Stirred
RoomAir Model,THERMAL ZONE 14,Mixing/Well-Stirred
RoomAir Model,THERMAL ZONE 10,Mixing/Well-Stirred
RoomAir Model,THERMAL ZONE 15,Mixing/Well-Stirred
RoomAir Model,THERMAL ZONE 8,Mixing/Well-Stirred
RoomAir Model,THERMAL ZONE 3,Mixing/Well-Stirred
RoomAir Model,THERMAL ZONE 4,Mixing/Well-Stirred
RoomAir Model,THERMAL ZONE 12,Mixing/Well-Stirred
RoomAir Model,THERMAL ZONE 2,Mixing/Well-Stirred
RoomAir Model,THERMAL ZONE 9,Mixing/Well-Stirred
RoomAir Model,THERMAL ZONE 7,Mixing/Well-Stirred
RoomAir Model,THERMAL ZONE 11,Mixing/Well-Stirred
RoomAir Model,THERMAL ZONE 6,Mixing/Well-Stirred
RoomAir Model,THERMAL ZONE 13,Mixing/Well-Stirred
RoomAir Model,THERMAL ZONE 1,Mixing/Well-Stirred
! <AirflowNetwork Model:Control>, No Multizone or Distribution/Multizone with Distribution/Multizone without Distribution/Multizone with Distribution only during Fan Operation
AirflowNetwork Model:Control,NoMultizoneOrDistribution
! <Zone Volume Capacitance Multiplier>, Sensible Heat Capacity Multiplier, Moisture Capacity Multiplier, Carbon Dioxide Capacity Multiplier, Generic Contaminant Capacity Multiplier
Zone Volume Capacitance Multiplier,   1.000 ,   1.000,   1.000,   1.000
! <Load Timesteps in Zone Design Calculation Averaging Window>, Value
 Load Timesteps in Zone Design Calculation Averaging Window,    4
! <Heating Sizing Factor Information>, Sizing Factor ID, Value
 Heating Sizing Factor Information, Global,   1.2500    
 Heating Sizing Factor Information, Zone THERMAL ZONE 5,   1.2500    
 Heating Sizing Factor Information, Zone THERMAL ZONE 14,   1.2500    
 Heating Sizing Factor Information, Zone THERMAL ZONE 10,   1.2500    
 Heating Sizing Factor Information, Zone THERMAL ZONE 15,   1.2500    
 Heating Sizing Factor Information, Zone THERMAL ZONE 8,   1.2500    
 Heating Sizing Factor Information, Zone THERMAL ZONE 3,   1.2500    
 Heating Sizing Factor Information, Zone THERMAL ZONE 4,   1.2500    
 Heating Sizing Factor Information, Zone THERMAL ZONE 12,   1.2500    
 Heating Sizing Factor Information, Zone THERMAL ZONE 2,   1.2500    
 Heating Sizing Factor Information, Zone THERMAL ZONE 9,   1.2500    
 Heating Sizing Factor Information, Zone THERMAL ZONE 7,   1.2500    
 Heating Sizing Factor Information, Zone THERMAL ZONE 11,   1.2500    
 Heating Sizing Factor Information, Zone THERMAL ZONE 6,   1.2500    
 Heating Sizing Factor Information, Zone THERMAL ZONE 13,   1.2500    
 Heating Sizing Factor Information, Zone THERMAL ZONE 1,   1.2500    
! <Cooling Sizing Factor Information>, Sizing Factor ID, Value
 Cooling Sizing Factor Information, Global,   1.1500    
 Cooling Sizing Factor Information, Zone THERMAL ZONE 5,   1.1500    
 Cooling Sizing Factor Information, Zone THERMAL ZONE 14,   1.1500    
 Cooling Sizing Factor Information, Zone THERMAL ZONE 10,   1.1500    
 Cooling Sizing Factor Information, Zone THERMAL ZONE 15,   1.1500    
 Cooling Sizing Factor Information, Zone THERMAL ZONE 8,   1.1500    
 Cooling Sizing Factor Information, Zone THERMAL ZONE 3,   1.1500    
 Cooling Sizing Factor Information, Zone THERMAL ZONE 4,   1.1500    
 Cooling Sizing Factor Information, Zone THERMAL ZONE 12,   1.1500    
 Cooling Sizing Factor Information, Zone THERMAL ZONE 2,   1.1500    
 Cooling Sizing Factor Information, Zone THERMAL ZONE 9,   1.1500    
 Cooling Sizing Factor Information, Zone THERMAL ZONE 7,   1.1500    
 Cooling Sizing Factor Information, Zone THERMAL ZONE 11,   1.1500    
 Cooling Sizing Factor Information, Zone THERMAL ZONE 6,   1.1500    
 Cooling Sizing Factor Information, Zone THERMAL ZONE 13,   1.1500    
 Cooling Sizing Factor Information, Zone THERMAL ZONE 1,   1.1500    
! <Zone Sizing Information>, Zone Name, Load Type, Calc Des Load {W}, User Des Load {W}, Calc Des Air Flow Rate {m3/s}, User Des Air Flow Rate {m3/s}, Design Day Name, Date/Time of Peak, Temperature at Peak {C}, Humidity Ratio at Peak {kgWater/kgDryAir}, Floor Area {m2}, # Occupants, Calc Outdoor Air Flow Rate {m3/s}
 Zone Sizing Information, THERMAL ZONE 5, Heating, 37492.42991, 46865.53738, 1.95426, 2.44282, CHICAGO OHARE INTL AP ANN HTG 99.6% CONDNS DB, 1/21 24:00:00, -20.00000, 6.49857E-004, 4136.00000, 0.00000, 0.00000
 Zone Sizing Information, THERMAL ZONE 14, Cooling, 5056.27369, 5814.71475, 0.30093, 0.34607, CHICAGO OHARE INTL AP ANN CLG .4% CONDNS DB=>MWB, 7/21 18:30:00, 29.99250, 1.49611E-002, 291.00000, 0.00000, 0.00000
 Zone Sizing Information, THERMAL ZONE 14, Heating, 16939.93213, 21174.91517, 0.88298, 1.10372, CHICAGO OHARE INTL AP ANN HTG 99.6% CONDNS DB, 1/21 24:00:00, -20.00000, 6.49857E-004, 291.00000, 0.00000, 0.00000
 Zone Sizing Information, THERMAL ZONE 10, Heating, 16020.69524, 20025.86905, 0.83506, 1.04383, CHICAGO OHARE INTL AP ANN HTG 99.6% CONDNS DB, 1/21 24:00:00, -20.00000, 6.49857E-004, 4136.00000, 0.00000, 0.00000
 Zone Sizing Information, THERMAL ZONE 15, Cooling, 9989.04543, 11487.40224, 0.59451, 0.68368, CHICAGO OHARE INTL AP ANN CLG .4% CONDNS DB=>MWB, 7/21 13:30:00, 33.03750, 1.49611E-002, 291.00000, 0.00000, 0.00000
 Zone Sizing Information, THERMAL ZONE 15, Heating, 17715.23935, 22144.04919, 0.92339, 1.15424, CHICAGO OHARE INTL AP ANN HTG 99.6% CONDNS DB, 1/21 24:00:00, -20.00000, 6.49857E-004, 291.00000, 0.00000, 0.00000
 Zone Sizing Information, THERMAL ZONE 8, Cooling, 1273.87189, 1464.95267, 7.58162E-002, 8.71886E-002, CHICAGO OHARE INTL AP ANN CLG .4% CONDNS DB=>MWB, 7/21 20:00:00, 28.05000, 1.49611E-002, 4136.00000, 0.00000, 0.00000
 Zone Sizing Information, THERMAL ZONE 8, Heating, 40204.78790, 50255.98488, 2.09564, 2.61954, CHICAGO OHARE INTL AP ANN HTG 99.6% CONDNS DB, 1/21 24:00:00, -20.00000, 6.49857E-004, 4136.00000, 0.00000, 0.00000
 Zone Sizing Information, THERMAL ZONE 3, Heating, 17715.23935, 22144.04919, 0.92339, 1.15424, CHICAGO OHARE INTL AP ANN HTG 99.6% CONDNS DB, 1/21 24:00:00, -20.00000, 6.49857E-004, 291.00000, 0.00000, 0.00000
 Zone Sizing Information, THERMAL ZONE 4, Cooling, 12568.69791, 14454.00259, 0.74804, 0.86025, CHICAGO OHARE INTL AP ANN CLG .4% CONDNS DB=>MWB, 7/21 17:15:00, 31.56750, 1.49611E-002, 141.00000, 0.00000, 0.00000
 Zone Sizing Information, THERMAL ZONE 4, Heating, 9699.20363, 12124.00453, 0.50556, 0.63195, CHICAGO OHARE INTL AP ANN HTG 99.6% CONDNS DB, 1/21 24:00:00, -20.00000, 6.49857E-004, 141.00000, 0.00000, 0.00000
 Zone Sizing Information, THERMAL ZONE 12, Cooling, 7007.13345, 8058.20347, 0.41704, 0.47959, CHICAGO OHARE INTL AP ANN CLG .4% CONDNS DB=>MWB, 7/21 18:30:00, 29.99250, 1.49611E-002, 291.00000, 0.00000, 0.00000
 Zone Sizing Information, THERMAL ZONE 12, Heating, 19370.89558, 24213.61948, 1.00969, 1.26211, CHICAGO OHARE INTL AP ANN HTG 99.6% CONDNS DB, 1/21 24:00:00, -20.00000, 6.49857E-004, 291.00000, 0.00000, 0.00000
 Zone Sizing Information, THERMAL ZONE 2, Cooling, 9948.50810, 11440.78431, 0.59210, 0.68091, CHICAGO OHARE INTL AP ANN CLG .4% CONDNS DB=>MWB, 7/21 10:30:00, 30.09750, 1.49611E-002, 141.00000, 0.00000, 0.00000
 Zone Sizing Information, THERMAL ZONE 2, Heating, 8380.25019, 10475.31273, 0.43681, 0.54602, CHICAGO OHARE INTL AP ANN HTG 99.6% CONDNS DB, 1/21 24:00:00, -20.00000, 6.49857E-004, 141.00000, 0.00000, 0.00000
 Zone Sizing Information, THERMAL ZONE 9, Cooling, 6745.42549, 7757.23932, 0.40146, 0.46168, CHICAGO OHARE INTL AP ANN CLG .4% CONDNS DB=>MWB, 7/21 09:45:00, 28.86375, 1.49611E-002, 141.00000, 0.00000, 0.00000
 Zone Sizing Information, THERMAL ZONE 9, Heating, 8790.27876, 10987.84845, 0.45818, 0.57273, CHICAGO OHARE INTL AP ANN HTG 99.6% CONDNS DB, 1/21 24:00:00, -20.00000, 6.49857E-004, 141.00000, 0.00000, 0.00000
 Zone Sizing Information, THERMAL ZONE 7, Cooling, 8509.20360, 9785.58415, 0.50643, 0.58240, CHICAGO OHARE INTL AP ANN CLG .4% CONDNS DB=>MWB, 7/21 16:45:00, 32.04000, 1.49611E-002, 141.00000, 0.00000, 0.00000
 Zone Sizing Information, THERMAL ZONE 7, Heating, 8876.70153, 11095.87691, 0.46269, 0.57836, CHICAGO OHARE INTL AP ANN HTG 99.6% CONDNS DB, 1/21 24:00:00, -20.00000, 6.49857E-004, 141.00000, 0.00000, 0.00000
 Zone Sizing Information, THERMAL ZONE 11, Cooling, 18238.01674, 20973.71925, 1.08545, 1.24827, CHICAGO OHARE INTL AP ANN CLG .4% CONDNS DB=>MWB, 7/21 14:15:00, 33.30000, 1.49611E-002, 291.00000, 0.00000, 0.00000
 Zone Sizing Information, THERMAL ZONE 11, Heating, 19370.89558, 24213.61948, 1.00969, 1.26211, CHICAGO OHARE INTL AP ANN HTG 99.6% CONDNS DB, 1/21 24:00:00, -20.00000, 6.49857E-004, 291.00000, 0.00000, 0.00000
 Zone Sizing Information, THERMAL ZONE 6, Cooling, 10583.52135, 12171.04955, 0.62989, 0.72437, CHICAGO OHARE INTL AP ANN CLG .4% CONDNS DB=>MWB, 7/21 10:15:00, 29.70375, 1.49611E-002, 141.00000, 0.00000, 0.00000
 Zone Sizing Information, THERMAL ZONE 6, Heating, 9542.63049, 11928.28811, 0.49740, 0.62175, CHICAGO OHARE INTL AP ANN HTG 99.6% CONDNS DB, 1/21 24:00:00, -20.00000, 6.49857E-004, 141.00000, 0.00000, 0.00000
 Zone Sizing Information, THERMAL ZONE 13, Cooling, 16812.68186, 19334.58413, 1.00062, 1.15072, CHICAGO OHARE INTL AP ANN CLG .4% CONDNS DB=>MWB, 7/21 14:15:00, 33.30000, 1.49611E-002, 291.00000, 0.00000, 0.00000
 Zone Sizing Information, THERMAL ZONE 13, Heating, 16939.93213, 21174.91517, 0.88298, 1.10372, CHICAGO OHARE INTL AP ANN HTG 99.6% CONDNS DB, 1/21 24:00:00, -20.00000, 6.49857E-004, 291.00000, 0.00000, 0.00000
 Zone Sizing Information, THERMAL ZONE 1, Cooling, 11807.62583, 13578.76970, 0.70274, 0.80815, CHICAGO OHARE INTL AP ANN CLG .4% CONDNS DB=>MWB, 7/21 17:15:00, 31.56750, 1.49611E-002, 141.00000, 0.00000, 0.00000
 Zone Sizing Information, THERMAL ZONE 1, Heating, 8518.58786, 10648.23482, 0.44402, 0.55503, CHICAGO OHARE INTL AP ANN HTG 99.6% CONDNS DB, 1/21 24:00:00, -20.00000, 6.49857E-004, 141.00000, 0.00000, 0.00000
! <System Sizing Information>, System Name, Field Description, Value
 System Sizing Information, AIR LOOP HVAC 1, Calculated Cooling Design Air Flow Rate [m3/s], 8.11329
 System Sizing Information, AIR LOOP HVAC 1, User Cooling Design Air Flow Rate [m3/s], 8.11329
 System Sizing Information, AIR LOOP HVAC 1, Calculated Heating Design Air Flow Rate [m3/s], 16.65217
 System Sizing Information, AIR LOOP HVAC 1, User Heating Design Air Flow Rate [m3/s], 16.65217
! <Component Sizing Information>, Component Type, Component Name, Input Field Description, Value
 Component Sizing Information, AirTerminal:SingleDuct:VAV:Reheat, AIR TERMINAL SINGLE DUCT VAV REHEAT 15, Maximum Air Flow Rate [m3/s], 2.44282
 Component Sizing Information, AirTerminal:SingleDuct:VAV:Reheat, AIR TERMINAL SINGLE DUCT VAV REHEAT 15, Maximum Flow per Zone Floor Area during Reheat [m3/s-m2], 5.90624E-004
 Component Sizing Information, AirTerminal:SingleDuct:VAV:Reheat, AIR TERMINAL SINGLE DUCT VAV REHEAT 15, Maximum Flow Fraction during Reheat [], 1.00000
 Component Sizing Information, AirTerminal:SingleDuct:VAV:Reheat, AIR TERMINAL SINGLE DUCT VAV REHEAT 15, Maximum Reheat Water Flow Rate [m3/s], 1.76024E-003
 Component Sizing Information, AirTerminal:SingleDuct:VAV:Reheat, AIR TERMINAL SINGLE DUCT VAV REHEAT 15, Reheat Coil Sizing Air Volume Flow Rate [m3/s], 2.44282
 Component Sizing Information, Coil:Heating:Water, COIL HEATING WATER 16, Maximum Water Flow Rate [m3/s], 1.76024E-003
 Component Sizing Information, Coil:Heating:Water, COIL HEATING WATER 16, Design Coil Load [W], 81024.49864
 Component Sizing Information, Coil:Heating:Water, COIL HEATING WATER 16, U-Factor Times Area Value [W/K], 1696.93492
! <Water Heating Coil Capacity Information>,Component Type,Name,Nominal Total Capacity {W}
Water Heating Coil Capacity Information,Coil:Heating:Water,COIL HEATING WATER 16,76756.16
 Component Sizing Information, AirTerminal:SingleDuct:VAV:Reheat, AIR TERMINAL SINGLE DUCT VAV REHEAT 11, Maximum Air Flow Rate [m3/s], 1.10372
 Component Sizing Information, AirTerminal:SingleDuct:VAV:Reheat, AIR TERMINAL SINGLE DUCT VAV REHEAT 11, Maximum Flow per Zone Floor Area during Reheat [m3/s-m2], 2.03200E-003
 Component Sizing Information, AirTerminal:SingleDuct:VAV:Reheat, AIR TERMINAL SINGLE DUCT VAV REHEAT 11, Maximum Flow Fraction during Reheat [], 0.53574
 Component Sizing Information, AirTerminal:SingleDuct:VAV:Reheat, AIR TERMINAL SINGLE DUCT VAV REHEAT 11, Maximum Reheat Water Flow Rate [m3/s], 7.95318E-004
 Component Sizing Information, AirTerminal:SingleDuct:VAV:Reheat, AIR TERMINAL SINGLE DUCT VAV REHEAT 11, Reheat Coil Sizing Air Volume Flow Rate [m3/s], 1.10372
 Component Sizing Information, Coil:Heating:Water, COIL HEATING WATER 12, Maximum Water Flow Rate [m3/s], 7.95318E-004
 Component Sizing Information, Coil:Heating:Water, COIL HEATING WATER 12, Design Coil Load [W], 36608.71039
 Component Sizing Information, Coil:Heating:Water, COIL HEATING WATER 12, U-Factor Times Area Value [W/K], 766.71377
Water Heating Coil Capacity Information,Coil:Heating:Water,COIL HEATING WATER 12,34680.18
 Component Sizing Information, AirTerminal:SingleDuct:VAV:Reheat, AIR TERMINAL SINGLE DUCT VAV REHEAT 9, Maximum Air Flow Rate [m3/s], 1.04383
 Component Sizing Information, AirTerminal:SingleDuct:VAV:Reheat, AIR TERMINAL SINGLE DUCT VAV REHEAT 9, Maximum Flow per Zone Floor Area during Reheat [m3/s-m2], 2.52376E-004
 Component Sizing Information, AirTerminal:SingleDuct:VAV:Reheat, AIR TERMINAL SINGLE DUCT VAV REHEAT 9, Maximum Flow Fraction during Reheat [], 1.00000
 Component Sizing Information, AirTerminal:SingleDuct:VAV:Reheat, AIR TERMINAL SINGLE DUCT VAV REHEAT 9, Maximum Reheat Water Flow Rate [m3/s], 7.52160E-004
 Component Sizing Information, AirTerminal:SingleDuct:VAV:Reheat, AIR TERMINAL SINGLE DUCT VAV REHEAT 9, Reheat Coil Sizing Air Volume Flow Rate [m3/s], 1.04383
 Component Sizing Information, Coil:Heating:Water, COIL HEATING WATER 10, Maximum Water Flow Rate [m3/s], 7.52160E-004
 Component Sizing Information, Coil:Heating:Water, COIL HEATING WATER 10, Design Coil Load [W], 34622.15713
 Component Sizing Information, Coil:Heating:Water, COIL HEATING WATER 10, U-Factor Times Area Value [W/K], 725.10844
Water Heating Coil Capacity Information,Coil:Heating:Water,COIL HEATING WATER 10,32798.27
 Component Sizing Information, AirTerminal:SingleDuct:VAV:Reheat, AIR TERMINAL SINGLE DUCT VAV REHEAT 3, Maximum Air Flow Rate [m3/s], 1.15424
 Component Sizing Information, AirTerminal:SingleDuct:VAV:Reheat, AIR TERMINAL SINGLE DUCT VAV REHEAT 3, Maximum Flow per Zone Floor Area during Reheat [m3/s-m2], 2.03200E-003
 Component Sizing Information, AirTerminal:SingleDuct:VAV:Reheat, AIR TERMINAL SINGLE DUCT VAV REHEAT 3, Maximum Flow Fraction during Reheat [], 0.51230
 Component Sizing Information, AirTerminal:SingleDuct:VAV:Reheat, AIR TERMINAL SINGLE DUCT VAV REHEAT 3, Maximum Reheat Water Flow Rate [m3/s], 8.31718E-004
 Component Sizing Information, AirTerminal:SingleDuct:VAV:Reheat, AIR TERMINAL SINGLE DUCT VAV REHEAT 3, Reheat Coil Sizing Air Volume Flow Rate [m3/s], 1.15424
 Component Sizing Information, Coil:Heating:Water, COIL HEATING WATER 4, Maximum Water Flow Rate [m3/s], 8.31718E-004
 Component Sizing Information, Coil:Heating:Water, COIL HEATING WATER 4, Design Coil Load [W], 38284.21871
 Component Sizing Information, Coil:Heating:Water, COIL HEATING WATER 4, U-Factor Times Area Value [W/K], 801.80475
Water Heating Coil Capacity Information,Coil:Heating:Water,COIL HEATING WATER 4,36267.42
 Component Sizing Information, AirTerminal:SingleDuct:VAV:Reheat, AIR TERMINAL SINGLE DUCT VAV REHEAT 10, Maximum Air Flow Rate [m3/s], 2.61954
 Component Sizing Information, AirTerminal:SingleDuct:VAV:Reheat, AIR TERMINAL SINGLE DUCT VAV REHEAT 10, Maximum Flow per Zone Floor Area during Reheat [m3/s-m2], 6.33352E-004
 Component Sizing Information, AirTerminal:SingleDuct:VAV:Reheat, AIR TERMINAL SINGLE DUCT VAV REHEAT 10, Maximum Flow Fraction during Reheat [], 1.00000
 Component Sizing Information, AirTerminal:SingleDuct:VAV:Reheat, AIR TERMINAL SINGLE DUCT VAV REHEAT 10, Maximum Reheat Water Flow Rate [m3/s], 1.88759E-003
 Component Sizing Information, AirTerminal:SingleDuct:VAV:Reheat, AIR TERMINAL SINGLE DUCT VAV REHEAT 10, Reheat Coil Sizing Air Volume Flow Rate [m3/s], 2.61954
 Component Sizing Information, Coil:Heating:Water, COIL HEATING WATER 11, Maximum Water Flow Rate [m3/s], 1.88759E-003
 Component Sizing Information, Coil:Heating:Water, COIL HEATING WATER 11, Design Coil Load [W], 86886.14718
 Component Sizing Information, Coil:Heating:Water, COIL HEATING WATER 11, U-Factor Times Area Value [W/K], 1819.69823
Water Heating Coil Capacity Information,Coil:Heating:Water,COIL HEATING WATER 11,82309.02
 Component Sizing Information, AirTerminal:SingleDuct:VAV:Reheat, AIR TERMINAL SINGLE DUCT VAV REHEAT 14, Maximum Air Flow Rate [m3/s], 1.15424
 Component Sizing Information, AirTerminal:SingleDuct:VAV:Reheat, AIR TERMINAL SINGLE DUCT VAV REHEAT 14, Maximum Flow per Zone Floor Area during Reheat [m3/s-m2], 2.03200E-003
 Component Sizing Information, AirTerminal:SingleDuct:VAV:Reheat, AIR TERMINAL SINGLE DUCT VAV REHEAT 14, Maximum Flow Fraction during Reheat [], 0.51230
 Component Sizing Information, AirTerminal:SingleDuct:VAV:Reheat, AIR TERMINAL SINGLE DUCT VAV REHEAT 14, Maximum Reheat Water Flow Rate [m3/s], 8.31718E-004
 Component Sizing Information, AirTerminal:SingleDuct:VAV:Reheat, AIR TERMINAL SINGLE DUCT VAV REHEAT 14, Reheat Coil Sizing Air Volume Flow Rate [m3/s], 1.15424
 Component Sizing Information, Coil:Heating:Water, COIL HEATING WATER 15, Maximum Water Flow Rate [m3/s], 8.31718E-004
 Component Sizing Information, Coil:Heating:Water, COIL HEATING WATER 15, Design Coil Load [W], 38284.21871
 Component Sizing Information, Coil:Heating:Water, COIL HEATING WATER 15, U-Factor Times Area Value [W/K], 801.80475
Water Heating Coil Capacity Information,Coil:Heating:Water,COIL HEATING WATER 15,36267.42
 Component Sizing Information, AirTerminal:SingleDuct:VAV:Reheat, AIR TERMINAL SINGLE DUCT VAV REHEAT 4, Maximum Air Flow Rate [m3/s], 0.86025
 Component Sizing Information, AirTerminal:SingleDuct:VAV:Reheat, AIR TERMINAL SINGLE DUCT VAV REHEAT 4, Maximum Flow per Zone Floor Area during Reheat [m3/s-m2], 2.03200E-003
 Component Sizing Information, AirTerminal:SingleDuct:VAV:Reheat, AIR TERMINAL SINGLE DUCT VAV REHEAT 4, Maximum Flow Fraction during Reheat [], 0.33306
 Component Sizing Information, AirTerminal:SingleDuct:VAV:Reheat, AIR TERMINAL SINGLE DUCT VAV REHEAT 4, Maximum Reheat Water Flow Rate [m3/s], 4.55371E-004
 Component Sizing Information, AirTerminal:SingleDuct:VAV:Reheat, AIR TERMINAL SINGLE DUCT VAV REHEAT 4, Reheat Coil Sizing Air Volume Flow Rate [m3/s], 0.63195
 Component Sizing Information, Coil:Heating:Water, COIL HEATING WATER 5, Maximum Water Flow Rate [m3/s], 4.55371E-004
 Component Sizing Information, Coil:Heating:Water, COIL HEATING WATER 5, Design Coil Load [W], 20960.84764
 Component Sizing Information, Coil:Heating:Water, COIL HEATING WATER 5, U-Factor Times Area Value [W/K], 597.57990
Water Heating Coil Capacity Information,Coil:Heating:Water,COIL HEATING WATER 5,24298.05
 Component Sizing Information, AirTerminal:SingleDuct:VAV:Reheat, AIR TERMINAL SINGLE DUCT VAV REHEAT 6, Maximum Air Flow Rate [m3/s], 1.26211
 Component Sizing Information, AirTerminal:SingleDuct:VAV:Reheat, AIR TERMINAL SINGLE DUCT VAV REHEAT 6, Maximum Flow per Zone Floor Area during Reheat [m3/s-m2], 2.03200E-003
 Component Sizing Information, AirTerminal:SingleDuct:VAV:Reheat, AIR TERMINAL SINGLE DUCT VAV REHEAT 6, Maximum Flow Fraction during Reheat [], 0.46851
 Component Sizing Information, AirTerminal:SingleDuct:VAV:Reheat, AIR TERMINAL SINGLE DUCT VAV REHEAT 6, Maximum Reheat Water Flow Rate [m3/s], 9.09450E-004
 Component Sizing Information, AirTerminal:SingleDuct:VAV:Reheat, AIR TERMINAL SINGLE DUCT VAV REHEAT 6, Reheat Coil Sizing Air Volume Flow Rate [m3/s], 1.26211
 Component Sizing Information, Coil:Heating:Water, COIL HEATING WATER 7, Maximum Water Flow Rate [m3/s], 9.09450E-004
 Component Sizing Information, Coil:Heating:Water, COIL HEATING WATER 7, Design Coil Load [W], 41862.24010
 Component Sizing Information, Coil:Heating:Water, COIL HEATING WATER 7, U-Factor Times Area Value [W/K], 876.74096
Water Heating Coil Capacity Information,Coil:Heating:Water,COIL HEATING WATER 7,39656.95
 Component Sizing Information, AirTerminal:SingleDuct:VAV:Reheat, AIR TERMINAL SINGLE DUCT VAV REHEAT 8, Maximum Air Flow Rate [m3/s], 0.68091
 Component Sizing Information, AirTerminal:SingleDuct:VAV:Reheat, AIR TERMINAL SINGLE DUCT VAV REHEAT 8, Maximum Flow per Zone Floor Area during Reheat [m3/s-m2], 2.03200E-003
 Component Sizing Information, AirTerminal:SingleDuct:VAV:Reheat, AIR TERMINAL SINGLE DUCT VAV REHEAT 8, Maximum Flow Fraction during Reheat [], 0.42078
 Component Sizing Information, AirTerminal:SingleDuct:VAV:Reheat, AIR TERMINAL SINGLE DUCT VAV REHEAT 8, Maximum Reheat Water Flow Rate [m3/s], 3.93447E-004
 Component Sizing Information, AirTerminal:SingleDuct:VAV:Reheat, AIR TERMINAL SINGLE DUCT VAV REHEAT 8, Reheat Coil Sizing Air Volume Flow Rate [m3/s], 0.54602
 Component Sizing Information, Coil:Heating:Water, COIL HEATING WATER 9, Maximum Water Flow Rate [m3/s], 3.93447E-004
 Component Sizing Information, Coil:Heating:Water, COIL HEATING WATER 9, Design Coil Load [W], 18110.47115
 Component Sizing Information, Coil:Heating:Water, COIL HEATING WATER 9, U-Factor Times Area Value [W/K], 473.00273
Water Heating Coil Capacity Information,Coil:Heating:Water,COIL HEATING WATER 9,19871.74
 Component Sizing Information, AirTerminal:SingleDuct:VAV:Reheat, AIR TERMINAL SINGLE DUCT VAV REHEAT 5, Maximum Air Flow Rate [m3/s], 0.57273
 Component Sizing Information, AirTerminal:SingleDuct:VAV:Reheat, AIR TERMINAL SINGLE DUCT VAV REHEAT 5, Maximum Flow per Zone Floor Area during Reheat [m3/s-m2], 2.03200E-003
 Component Sizing Information, AirTerminal:SingleDuct:VAV:Reheat, AIR TERMINAL SINGLE DUCT VAV REHEAT 5, Maximum Flow Fraction during Reheat [], 0.50026
 Component Sizing Information, AirTerminal:SingleDuct:VAV:Reheat, AIR TERMINAL SINGLE DUCT VAV REHEAT 5, Maximum Reheat Water Flow Rate [m3/s], 4.12697E-004
 Component Sizing Information, AirTerminal:SingleDuct:VAV:Reheat, AIR TERMINAL SINGLE DUCT VAV REHEAT 5, Reheat Coil Sizing Air Volume Flow Rate [m3/s], 0.57273
 Component Sizing Information, Coil:Heating:Water, COIL HEATING WATER 6, Maximum Water Flow Rate [m3/s], 4.12697E-004
 Component Sizing Information, Coil:Heating:Water, COIL HEATING WATER 6, Design Coil Load [W], 18996.57961
 Component Sizing Information, Coil:Heating:Water, COIL HEATING WATER 6, U-Factor Times Area Value [W/K], 397.85447
Water Heating Coil Capacity Information,Coil:Heating:Water,COIL HEATING WATER 6,17995.85
 Component Sizing Information, AirTerminal:SingleDuct:VAV:Reheat, AIR TERMINAL SINGLE DUCT VAV REHEAT 13, Maximum Air Flow Rate [m3/s], 0.58240
 Component Sizing Information, AirTerminal:SingleDuct:VAV:Reheat, AIR TERMINAL SINGLE DUCT VAV REHEAT 13, Maximum Flow per Zone Floor Area during Reheat [m3/s-m2], 2.03200E-003
 Component Sizing Information, AirTerminal:SingleDuct:VAV:Reheat, AIR TERMINAL SINGLE DUCT VAV REHEAT 13, Maximum Flow Fraction during Reheat [], 0.49195
 Component Sizing Information, AirTerminal:SingleDuct:VAV:Reheat, AIR TERMINAL SINGLE DUCT VAV REHEAT 13, Maximum Reheat Water Flow Rate [m3/s], 4.16755E-004
 Component Sizing Information, AirTerminal:SingleDuct:VAV:Reheat, AIR TERMINAL SINGLE DUCT VAV REHEAT 13, Reheat Coil Sizing Air Volume Flow Rate [m3/s], 0.57836
 Component Sizing Information, Coil:Heating:Water, COIL HEATING WATER 14, Maximum Water Flow Rate [m3/s], 4.16755E-004
 Component Sizing Information, Coil:Heating:Water, COIL HEATING WATER 14, Design Coil Load [W], 19183.34695
 Component Sizing Information, Coil:Heating:Water, COIL HEATING WATER 14, U-Factor Times Area Value [W/K], 404.57064
Water Heating Coil Capacity Information,Coil:Heating:Water,COIL HEATING WATER 14,18260.33
 Component Sizing Information, AirTerminal:SingleDuct:VAV:Reheat, AIR TERMINAL SINGLE DUCT VAV REHEAT 7, Maximum Air Flow Rate [m3/s], 1.26211
 Component Sizing Information, AirTerminal:SingleDuct:VAV:Reheat, AIR TERMINAL SINGLE DUCT VAV REHEAT 7, Maximum Flow per Zone Floor Area during Reheat [m3/s-m2], 2.03200E-003
 Component Sizing Information, AirTerminal:SingleDuct:VAV:Reheat, AIR TERMINAL SINGLE DUCT VAV REHEAT 7, Maximum Flow Fraction during Reheat [], 0.46851
 Component Sizing Information, AirTerminal:SingleDuct:VAV:Reheat, AIR TERMINAL SINGLE DUCT VAV REHEAT 7, Maximum Reheat Water Flow Rate [m3/s], 9.09450E-004
 Component Sizing Information, AirTerminal:SingleDuct:VAV:Reheat, AIR TERMINAL SINGLE DUCT VAV REHEAT 7, Reheat Coil Sizing Air Volume Flow Rate [m3/s], 1.26211
 Component Sizing Information, Coil:Heating:Water, COIL HEATING WATER 8, Maximum Water Flow Rate [m3/s], 9.09450E-004
 Component Sizing Information, Coil:Heating:Water, COIL HEATING WATER 8, Design Coil Load [W], 41862.24010
 Component Sizing Information, Coil:Heating:Water, COIL HEATING WATER 8, U-Factor Times Area Value [W/K], 876.74096
Water Heating Coil Capacity Information,Coil:Heating:Water,COIL HEATING WATER 8,39656.95
 Component Sizing Information, AirTerminal:SingleDuct:VAV:Reheat, AIR TERMINAL SINGLE DUCT VAV REHEAT 12, Maximum Air Flow Rate [m3/s], 0.72437
 Component Sizing Information, AirTerminal:SingleDuct:VAV:Reheat, AIR TERMINAL SINGLE DUCT VAV REHEAT 12, Maximum Flow per Zone Floor Area during Reheat [m3/s-m2], 2.03200E-003
 Component Sizing Information, AirTerminal:SingleDuct:VAV:Reheat, AIR TERMINAL SINGLE DUCT VAV REHEAT 12, Maximum Flow Fraction during Reheat [], 0.39553
 Component Sizing Information, AirTerminal:SingleDuct:VAV:Reheat, AIR TERMINAL SINGLE DUCT VAV REHEAT 12, Maximum Reheat Water Flow Rate [m3/s], 4.48020E-004
 Component Sizing Information, AirTerminal:SingleDuct:VAV:Reheat, AIR TERMINAL SINGLE DUCT VAV REHEAT 12, Reheat Coil Sizing Air Volume Flow Rate [m3/s], 0.62175
 Component Sizing Information, Coil:Heating:Water, COIL HEATING WATER 13, Maximum Water Flow Rate [m3/s], 4.48020E-004
 Component Sizing Information, Coil:Heating:Water, COIL HEATING WATER 13, Design Coil Load [W], 20622.47908
 Component Sizing Information, Coil:Heating:Water, COIL HEATING WATER 13, U-Factor Times Area Value [W/K], 503.19449
Water Heating Coil Capacity Information,Coil:Heating:Water,COIL HEATING WATER 13,21654.08
 Component Sizing Information, AirTerminal:SingleDuct:VAV:Reheat, AIR TERMINAL SINGLE DUCT VAV REHEAT 16, Maximum Air Flow Rate [m3/s], 1.15072
 Component Sizing Information, AirTerminal:SingleDuct:VAV:Reheat, AIR TERMINAL SINGLE DUCT VAV REHEAT 16, Maximum Flow per Zone Floor Area during Reheat [m3/s-m2], 2.03200E-003
 Component Sizing Information, AirTerminal:SingleDuct:VAV:Reheat, AIR TERMINAL SINGLE DUCT VAV REHEAT 16, Maximum Flow Fraction during Reheat [], 0.51386
 Component Sizing Information, AirTerminal:SingleDuct:VAV:Reheat, AIR TERMINAL SINGLE DUCT VAV REHEAT 16, Maximum Reheat Water Flow Rate [m3/s], 7.95318E-004
 Component Sizing Information, AirTerminal:SingleDuct:VAV:Reheat, AIR TERMINAL SINGLE DUCT VAV REHEAT 16, Reheat Coil Sizing Air Volume Flow Rate [m3/s], 1.10372
 Component Sizing Information, Coil:Heating:Water, COIL HEATING WATER 17, Maximum Water Flow Rate [m3/s], 7.95318E-004
 Component Sizing Information, Coil:Heating:Water, COIL HEATING WATER 17, Design Coil Load [W], 36608.71039
 Component Sizing Information, Coil:Heating:Water, COIL HEATING WATER 17, U-Factor Times Area Value [W/K], 799.36050
Water Heating Coil Capacity Information,Coil:Heating:Water,COIL HEATING WATER 17,35687.89
 Component Sizing Information, AirTerminal:SingleDuct:VAV:Reheat, AIR TERMINAL SINGLE DUCT VAV REHEAT 2, Maximum Air Flow Rate [m3/s], 0.80815
 Component Sizing Information, AirTerminal:SingleDuct:VAV:Reheat, AIR TERMINAL SINGLE DUCT VAV REHEAT 2, Maximum Flow per Zone Floor Area during Reheat [m3/s-m2], 2.03200E-003
 Component Sizing Information, AirTerminal:SingleDuct:VAV:Reheat, AIR TERMINAL SINGLE DUCT VAV REHEAT 2, Maximum Flow Fraction during Reheat [], 0.35453
 Component Sizing Information, AirTerminal:SingleDuct:VAV:Reheat, AIR TERMINAL SINGLE DUCT VAV REHEAT 2, Maximum Reheat Water Flow Rate [m3/s], 3.99942E-004
 Component Sizing Information, AirTerminal:SingleDuct:VAV:Reheat, AIR TERMINAL SINGLE DUCT VAV REHEAT 2, Reheat Coil Sizing Air Volume Flow Rate [m3/s], 0.55503
 Component Sizing Information, Coil:Heating:Water, COIL HEATING WATER 3, Maximum Water Flow Rate [m3/s], 3.99942E-004
 Component Sizing Information, Coil:Heating:Water, COIL HEATING WATER 3, Design Coil Load [W], 18409.43124
 Component Sizing Information, Coil:Heating:Water, COIL HEATING WATER 3, U-Factor Times Area Value [W/K], 561.39465
Water Heating Coil Capacity Information,Coil:Heating:Water,COIL HEATING WATER 3,22229.82
 Component Sizing Information, Branch, BRANCH {5146B692-B023-4E73-AB08-593F79C2BEAE}, Maximum Flow Rate [m3/s], 16.65217
 Component Sizing Information, AirLoopHVAC, AIR LOOP HVAC 1, Design Supply Air Flow Rate [m3/s], 16.65217
 Component Sizing Information, Controller:OutdoorAir, CONTROLLER OUTDOOR AIR 1, Maximum Outdoor Air Flow Rate [m3/s], 16.65217
 Component Sizing Information, Controller:OutdoorAir, CONTROLLER OUTDOOR AIR 1, Minimum Outdoor Air Flow Rate [m3/s], 0.00000
 Component Sizing Information, Coil:Cooling:DX:TwoSpeed, COIL COOLING DX TWO SPEED 1, Rated High Speed Air Flow Rate [m3/s], 16.65217
 Component Sizing Information, Coil:Cooling:DX:TwoSpeed, COIL COOLING DX TWO SPEED 1, Rated High Speed Total Cooling Capacity (gross) [W], 413513.09441
 Component Sizing Information, Coil:Cooling:DX:TwoSpeed, COIL COOLING DX TWO SPEED 1, Rated High Speed Sensible Heat Ratio, 0.67608
 Component Sizing Information, Coil:Cooling:DX:TwoSpeed, COIL COOLING DX TWO SPEED 1, Rated Low Speed Air Flow Rate [m3/s], 5.55017
 Component Sizing Information, Coil:Cooling:DX:TwoSpeed, COIL COOLING DX TWO SPEED 1, Rated Low Speed Total Cooling Capacity (gross) [W], 137823.91437
! <VAV DX Cooling Coil Standard Rating Information>, DX Coil Type, DX Coil Name, Fan Type, Fan Name, Standard Net Cooling Capacity {W}, Standard Net Cooling Capacity {Btu/h}, IEER {Btu/W-h}, COP 100% Capacity {W/W}, COP 75% Capacity {W/W}, COP 50% Capacity {W/W}, COP 25% Capacity {W/W}, EER 100% Capacity {Btu/W-h}, EER 75% Capacity {Btu/W-h}, EER 50% Capacity {Btu/W-h}, EER 25% Capacity {Btu/W-h}, Supply Air Flow 100% {kg/s}, Supply Air Flow 75% {kg/s},Supply Air Flow 50% {kg/s},Supply Air Flow 25% {kg/s}
 VAV DX Cooling Coil Standard Rating Information, Coil:Cooling:DX:TwoSpeed,COIL COOLING DX TWO SPEED 1,N/A,N/A,401336.25,1369416.13,25.83,4.59,6.18,8.70,12.79,15.66,21.07,29.68,43.64,18.8058,15.0674,10.3722,5.3245,
 Component Sizing Information, Coil:Heating:Water, COIL HEATING WATER 1, Maximum Water Flow Rate [m3/s], 4.20622E-003
 Component Sizing Information, Coil:Heating:Water, COIL HEATING WATER 1, Design Coil Load [W], 193613.51748
 Component Sizing Information, Coil:Heating:Water, COIL HEATING WATER 1, U-Factor Times Area Value [W/K], 2490.28849
Water Heating Coil Capacity Information,Coil:Heating:Water,COIL HEATING WATER 1,139461.72
 Component Sizing Information, Fan:VariableVolume, FAN VARIABLE VOLUME 1, Maximum Flow Rate [m3/s], 16.65217
 Component Sizing Information, Controller:WaterCoil, CONTROLLER WATER COIL 1, Maximum Actuated Flow [m3/s], 4.20622E-003
 Component Sizing Information, Controller:WaterCoil, CONTROLLER WATER COIL 1, Controller Convergence Tolerance, 1.13211E-004
 Component Sizing Information, Boiler:HotWater, BOILER HOT WATER 1, Nominal Capacity [W], 748827.32348
 Component Sizing Information, Boiler:HotWater, BOILER HOT WATER 1, Design Water Flow Rate [m3/s], 1.62054E-002
 Component Sizing Information, PlantLoop, PLANT LOOP 1, Maximum Loop Flow Rate [m3/s], 1.62054E-002
 Component Sizing Information, PlantLoop, PLANT LOOP 1, Plant Loop Volume [m3], 18.23108
 Component Sizing Information, Pump:VariableSpeed, PUMP VARIABLE SPEED 1, Rated Flow Rate [m3/s], 1.62054E-002
 Component Sizing Information, Pump:VariableSpeed, PUMP VARIABLE SPEED 1, Rated Power Consumption [W], 4140.27371
! <Environment>,Environment Name,Environment Type, Start Date, End Date, Start DayOfWeek, Duration {#days}, Source:Start DayOfWeek,  Use Daylight Saving, Use Holidays, Apply Weekend Holiday Rule,  Use Rain Values, Use Snow Values
! <Environment:Special Days>, Special Day Name, Special Day Type, Source, Start Date, Duration {#days}
! <Environment:Daylight Saving>, Daylight Saving Indicator, Source, Start Date, End Date
! <Environment:WarmupDays>, NumberofWarmupDays
Environment,CHICAGO OHARE INTL AP ANN HUM_N 99.6% CONDNS DP=>MCDB,SizingPeriod:DesignDay,01/21,01/21,WinterDesignDay,1,N/A,N/A,N/A,N/A,N/A,N/A
Environment:Daylight Saving,No,SizingPeriod:DesignDay
! <Environment:Design Day Data>, Max Dry-Bulb Temp {C}, Temp Range {dC}, Temp Range Ind Type, Hum Ind Value at Max Temp, Hum Ind Type,Pressure {Pa}, Wind Direction {deg CW from N}, Wind Speed {m/s}, Clearness, Rain, Snow
! <Environment:Design_Day_Misc>,DayOfYear,ASHRAE A Coeff,ASHRAE B Coeff,ASHRAE C Coeff,Solar Constant-Annual Variation,Eq of Time {minutes}, Solar Declination Angle {deg}, Solar Model
Environment:Design Day Data,-19.20,0.00,DefaultMultipliers,98934,270,4.9,0.00,No ,No 
Environment:Design_Day_Misc, 21,1229.0,0.1415,5.7310E-002,1.0,-11.15,-20.1,ASHRAEClearSky
Environment:WarmupDays,  6
! <Tabular Report>,Style
Tabular Report,HTML
! <Warmup Convergence Information>,Zone Name,Environment Type/Name,Average Warmup Temperature Difference {deltaC},Std Dev Warmup Temperature Difference {deltaC},Max Temperature Pass/Fail Convergence,Min Temperature Pass/Fail Convergence,Average Warmup Load Difference {W},Std Dev Warmup Load Difference {W},Heating Load Pass/Fail Convergence,Cooling Load Pass/Fail Convergence
 Warmup Convergence Information,THERMAL ZONE 5,SizingPeriod: CHICAGO OHARE INTL AP ANN HUM_N 99.6% CONDNS DP=>MCDB,3.1754624360E-005,7.5944649945E-006,Pass,Pass,4.3056997616E-006,3.5144920919E-006,Pass,Pass
 Warmup Convergence Information,THERMAL ZONE 14,SizingPeriod: CHICAGO OHARE INTL AP ANN HUM_N 99.6% CONDNS DP=>MCDB,3.0787117969E-005,1.1537715205E-005,Pass,Pass,4.4312281603E-006,4.2005099248E-006,Pass,Pass
 Warmup Convergence Information,THERMAL ZONE 10,SizingPeriod: CHICAGO OHARE INTL AP ANN HUM_N 99.6% CONDNS DP=>MCDB,1.0242123043E-004,2.3609074130E-005,Pass,Pass,9.6080457695E-006,4.1101907282E-006,Pass,Pass
 Warmup Convergence Information,THERMAL ZONE 15,SizingPeriod: CHICAGO OHARE INTL AP ANN HUM_N 99.6% CONDNS DP=>MCDB,1.2539867547E-005,5.3490073099E-006,Pass,Pass,2.9080330619E-006,4.2595209647E-006,Pass,Pass
 Warmup Convergence Information,THERMAL ZONE 8,SizingPeriod: CHICAGO OHARE INTL AP ANN HUM_N 99.6% CONDNS DP=>MCDB,1.0484985870E-004,2.4266729408E-005,Pass,Pass,9.7421911479E-006,4.2902081774E-006,Pass,Pass
 Warmup Convergence Information,THERMAL ZONE 3,SizingPeriod: CHICAGO OHARE INTL AP ANN HUM_N 99.6% CONDNS DP=>MCDB,1.2633965854E-005,5.3892216370E-006,Pass,Pass,2.9250967446E-006,4.2850006710E-006,Pass,Pass
 Warmup Convergence Information,THERMAL ZONE 4,SizingPeriod: CHICAGO OHARE INTL AP ANN HUM_N 99.6% CONDNS DP=>MCDB,1.3989159726E-003,2.5467934690E-003,Pass,Pass,6.8551400052E-004,1.3045962957E-003,Pass,Pass
 Warmup Convergence Information,THERMAL ZONE 12,SizingPeriod: CHICAGO OHARE INTL AP ANN HUM_N 99.6% CONDNS DP=>MCDB,3.2392112023E-005,1.2416251746E-005,Pass,Pass,4.5291959020E-006,4.2203256148E-006,Pass,Pass
 Warmup Convergence Information,THERMAL ZONE 2,SizingPeriod: CHICAGO OHARE INTL AP ANN HUM_N 99.6% CONDNS DP=>MCDB,2.5899627010E-005,6.6287971989E-006,Pass,Pass,2.5538819650E-006,1.1055449818E-006,Pass,Pass
 Warmup Convergence Information,THERMAL ZONE 9,SizingPeriod: CHICAGO OHARE INTL AP ANN HUM_N 99.6% CONDNS DP=>MCDB,1.1955498933E-005,5.2427424246E-006,Pass,Pass,2.8212685582E-006,4.1792533114E-006,Pass,Pass
 Warmup Convergence Information,THERMAL ZONE 7,SizingPeriod: CHICAGO OHARE INTL AP ANN HUM_N 99.6% CONDNS DP=>MCDB,1.1576017942E-005,5.0482849749E-006,Pass,Pass,2.7578115369E-006,4.0805789793E-006,Pass,Pass
 Warmup Convergence Information,THERMAL ZONE 11,SizingPeriod: CHICAGO OHARE INTL AP ANN HUM_N 99.6% CONDNS DP=>MCDB,3.2280301840E-005,1.2355122799E-005,Pass,Pass,4.5128809452E-006,4.1922640676E-006,Pass,Pass
 Warmup Convergence Information,THERMAL ZONE 6,SizingPeriod: CHICAGO OHARE INTL AP ANN HUM_N 99.6% CONDNS DP=>MCDB,2.7916263467E-005,9.0749048048E-006,Pass,Pass,3.2268179628E-006,2.0006649603E-006,Pass,Pass
 Warmup Convergence Information,THERMAL ZONE 13,SizingPeriod: CHICAGO OHARE INTL AP ANN HUM_N 99.6% CONDNS DP=>MCDB,2.9981299323E-005,1.1080483168E-005,Pass,Pass,4.1532026000E-006,3.6872422645E-006,Pass,Pass
 Warmup Convergence Information,THERMAL ZONE 1,SizingPeriod: CHICAGO OHARE INTL AP ANN HUM_N 99.6% CONDNS DP=>MCDB,8.2667785153E-004,2.1505120626E-003,Pass,Pass,4.0470174798E-004,1.1473383717E-003,Pass,Pass
Environment,CHICAGO OHARE INTL AP ANN CLG 2% CONDNS ENTH=>MDB,SizingPeriod:DesignDay,07/21,07/21,SummerDesignDay,1,N/A,N/A,N/A,N/A,N/A,N/A
Environment:Daylight Saving,No,SizingPeriod:DesignDay
Environment:Design Day Data,28.20,10.50,DefaultMultipliers,98934,230,5.2,0.00,No ,No 
Environment:Design_Day_Misc,202,1084.4,0.2082,0.1365,1.0,-6.23,20.6,ASHRAETau
Environment:WarmupDays,  6
 Warmup Convergence Information,THERMAL ZONE 5,SizingPeriod: CHICAGO OHARE INTL AP ANN CLG 2% CONDNS ENTH=>MDB,4.6103021968E-003,4.7154374795E-003,Pass,Pass,3.1492245389E-003,3.8664805779E-003,Pass,Pass
 Warmup Convergence Information,THERMAL ZONE 14,SizingPeriod: CHICAGO OHARE INTL AP ANN CLG 2% CONDNS ENTH=>MDB,2.0621969504E-002,4.6512931811E-002,Pass,Pass,0.2108735710,0.6458903217,Pass,Pass
 Warmup Convergence Information,THERMAL ZONE 10,SizingPeriod: CHICAGO OHARE INTL AP ANN CLG 2% CONDNS ENTH=>MDB,1.0446869926E-004,9.3261271130E-005,Pass,Pass,0.2157166314,0.5546127624,Pass,Pass
 Warmup Convergence Information,THERMAL ZONE 15,SizingPeriod: CHICAGO OHARE INTL AP ANN CLG 2% CONDNS ENTH=>MDB,8.4219091155E-002,0.1467146743,Pass,Pass,0.1993651378,0.5433738213,Pass,Pass
 Warmup Convergence Information,THERMAL ZONE 8,SizingPeriod: CHICAGO OHARE INTL AP ANN CLG 2% CONDNS ENTH=>MDB,1.2691146466E-004,1.3567871423E-004,Pass,Pass,2.8959122365E-002,1.5426684304E-002,Pass,Pass
 Warmup Convergence Information,THERMAL ZONE 3,SizingPeriod: CHICAGO OHARE INTL AP ANN CLG 2% CONDNS ENTH=>MDB,1.0157629837E-003,9.6038261297E-004,Pass,Pass,0.3761312653,1.7117115629,Pass,Pass
 Warmup Convergence Information,THERMAL ZONE 4,SizingPeriod: CHICAGO OHARE INTL AP ANN CLG 2% CONDNS ENTH=>MDB,8.3891354998E-002,0.1444967372,Pass,Pass,6.7068193174E-002,4.6915852653E-002,Pass,Pass
 Warmup Convergence Information,THERMAL ZONE 12,SizingPeriod: CHICAGO OHARE INTL AP ANN CLG 2% CONDNS ENTH=>MDB,2.0635581981E-002,4.6353885900E-002,Pass,Pass,0.3161685841,1.7643829995,Pass,Pass
 Warmup Convergence Information,THERMAL ZONE 2,SizingPeriod: CHICAGO OHARE INTL AP ANN CLG 2% CONDNS ENTH=>MDB,8.3786930596E-002,0.1424642569,Pass,Pass,0.1845817614,0.6108876815,Pass,Pass
 Warmup Convergence Information,THERMAL ZONE 9,SizingPeriod: CHICAGO OHARE INTL AP ANN CLG 2% CONDNS ENTH=>MDB,8.4155392494E-002,0.1750964372,Pass,Pass,0.2015031442,0.6567150937,Pass,Pass
 Warmup Convergence Information,THERMAL ZONE 7,SizingPeriod: CHICAGO OHARE INTL AP ANN CLG 2% CONDNS ENTH=>MDB,8.4237075399E-002,0.2094090972,Pass,Pass,0.3103344389,0.9708576777,Pass,Pass
 Warmup Convergence Information,THERMAL ZONE 11,SizingPeriod: CHICAGO OHARE INTL AP ANN CLG 2% CONDNS ENTH=>MDB,8.3733356165E-002,0.1179645946,Pass,Pass,0.1270784865,0.2214629645,Pass,Pass
 Warmup Convergence Information,THERMAL ZONE 6,SizingPeriod: CHICAGO OHARE INTL AP ANN CLG 2% CONDNS ENTH=>MDB,8.3850934028E-002,0.1366657076,Pass,Pass,0.1491527863,0.4573638208,Pass,Pass
 Warmup Convergence Information,THERMAL ZONE 13,SizingPeriod: CHICAGO OHARE INTL AP ANN CLG 2% CONDNS ENTH=>MDB,8.3800877631E-002,0.1228525168,Pass,Pass,0.4814283373,3.1770454724,Pass,Pass
 Warmup Convergence Information,THERMAL ZONE 1,SizingPeriod: CHICAGO OHARE INTL AP ANN CLG 2% CONDNS ENTH=>MDB,8.3837900772E-002,0.1449780196,Pass,Pass,8.2017229658E-002,6.5055243952E-002,Pass,Pass
Environment,CHICAGO OHARE INTL AP ANN CLG 2% CONDNS DP=>MDB,SizingPeriod:DesignDay,07/21,07/21,SummerDesignDay,1,N/A,N/A,N/A,N/A,N/A,N/A
Environment:Daylight Saving,No,SizingPeriod:DesignDay
Environment:Design Day Data,26.50,10.50,DefaultMultipliers,98934,230,5.2,0.00,No ,No 
Environment:Design_Day_Misc,202,1084.4,0.2082,0.1365,1.0,-6.23,20.6,ASHRAETau
Environment:WarmupDays,  6
 Warmup Convergence Information,THERMAL ZONE 5,SizingPeriod: CHICAGO OHARE INTL AP ANN CLG 2% CONDNS DP=>MDB,5.1564493815E-003,5.0458049175E-003,Pass,Pass,3.0639163586E-003,3.5223341996E-003,Pass,Pass
 Warmup Convergence Information,THERMAL ZONE 14,SizingPeriod: CHICAGO OHARE INTL AP ANN CLG 2% CONDNS DP=>MDB,1.3345887461E-002,3.2908014035E-002,Pass,Pass,0.1854839305,0.4150644328,Pass,Pass
 Warmup Convergence Information,THERMAL ZONE 10,SizingPeriod: CHICAGO OHARE INTL AP ANN CLG 2% CONDNS DP=>MDB,9.9877727048E-005,9.7846077473E-005,Pass,Pass,0.1902321942,0.4276639005,Pass,Pass
 Warmup Convergence Information,THERMAL ZONE 15,SizingPeriod: CHICAGO OHARE INTL AP ANN CLG 2% CONDNS DP=>MDB,8.4137008686E-002,0.1426998442,Pass,Pass,0.2744681268,1.1234749963,Pass,Pass
 Warmup Convergence Information,THERMAL ZONE 8,SizingPeriod: CHICAGO OHARE INTL AP ANN CLG 2% CONDNS DP=>MDB,1.4353595190E-004,1.2882708011E-004,Pass,Pass,3.9596014342E-002,2.3363256724E-002,Pass,Pass
 Warmup Convergence Information,THERMAL ZONE 3,SizingPeriod: CHICAGO OHARE INTL AP ANN CLG 2% CONDNS DP=>MDB,1.0581153701E-003,9.6689303350E-004,Pass,Pass,0.2682509663,0.9281470630,Pass,Pass
 Warmup Convergence Information,THERMAL ZONE 4,SizingPeriod: CHICAGO OHARE INTL AP ANN CLG 2% CONDNS DP=>MDB,8.3992170468E-002,0.1477925926,Pass,Pass,0.1153641433,0.1400694782,Pass,Pass
 Warmup Convergence Information,THERMAL ZONE 12,SizingPeriod: CHICAGO OHARE INTL AP ANN CLG 2% CONDNS DP=>MDB,1.2337593538E-002,3.3366557239E-002,Pass,Pass,0.1781635376,0.3990742499,Pass,Pass
 Warmup Convergence Information,THERMAL ZONE 2,SizingPeriod: CHICAGO OHARE INTL AP ANN CLG 2% CONDNS DP=>MDB,8.3908501186E-002,0.1398607976,Pass,Pass,0.1915959230,0.5648295681,Pass,Pass
 Warmup Convergence Information,THERMAL ZONE 9,SizingPeriod: CHICAGO OHARE INTL AP ANN CLG 2% CONDNS DP=>MDB,8.3976442744E-002,0.1775119805,Pass,Pass,0.2220508260,0.8330893726,Pass,Pass
 Warmup Convergence Information,THERMAL ZONE 7,SizingPeriod: CHICAGO OHARE INTL AP ANN CLG 2% CONDNS DP=>MDB,8.4107031207E-002,0.2082390746,Pass,Pass,0.3081835765,1.0207365832,Pass,Pass
 Warmup Convergence Information,THERMAL ZONE 11,SizingPeriod: CHICAGO OHARE INTL AP ANN CLG 2% CONDNS DP=>MDB,8.3755978855E-002,0.1176071490,Pass,Pass,0.2424608194,0.7950105266,Pass,Pass
 Warmup Convergence Information,THERMAL ZONE 6,SizingPeriod: CHICAGO OHARE INTL AP ANN CLG 2% CONDNS DP=>MDB,8.3820060873E-002,0.1336924858,Pass,Pass,0.1499541681,0.3594563682,Pass,Pass
 Warmup Convergence Information,THERMAL ZONE 13,SizingPeriod: CHICAGO OHARE INTL AP ANN CLG 2% CONDNS DP=>MDB,8.3824097478E-002,0.1223547881,Pass,Pass,0.1971867062,0.4644344312,Pass,Pass
 Warmup Convergence Information,THERMAL ZONE 1,SizingPeriod: CHICAGO OHARE INTL AP ANN CLG 2% CONDNS DP=>MDB,8.3869383058E-002,0.1483414308,Pass,Pass,1.7693447157,11.6170596471,Pass,Pass
Environment,CHICAGO OHARE INTL AP ANN CLG 1% CONDNS DB=>MWB,SizingPeriod:DesignDay,07/21,07/21,SummerDesignDay,1,N/A,N/A,N/A,N/A,N/A,N/A
Environment:Daylight Saving,No,SizingPeriod:DesignDay
Environment:Design Day Data,31.60,10.50,DefaultMultipliers,98934,230,5.2,0.00,No ,No 
Environment:Design_Day_Misc,202,1084.4,0.2082,0.1365,1.0,-6.23,20.6,ASHRAETau
Environment:WarmupDays,  6
 Warmup Convergence Information,THERMAL ZONE 5,SizingPeriod: CHICAGO OHARE INTL AP ANN CLG 1% CONDNS DB=>MWB,3.5712820460E-003,3.9131840563E-003,Pass,Pass,3.7121229628E-003,3.9729486219E-003,Pass,Pass
 Warmup Convergence Information,THERMAL ZONE 14,SizingPeriod: CHICAGO OHARE INTL AP ANN CLG 1% CONDNS DB=>MWB,3.4303888916E-002,5.5732432140E-002,Pass,Pass,0.2295105439,1.2352094694,Pass,Pass
 Warmup Convergence Information,THERMAL ZONE 10,SizingPeriod: CHICAGO OHARE INTL AP ANN CLG 1% CONDNS DB=>MWB,8.1002027122E-005,8.2785473696E-005,Pass,Pass,0.3974308007,1.8014965565,Pass,Pass
 Warmup Convergence Information,THERMAL ZONE 15,SizingPeriod: CHICAGO OHARE INTL AP ANN CLG 1% CONDNS DB=>MWB,8.3968318888E-002,0.1505586748,Pass,Pass,0.1804622288,0.3861072837,Pass,Pass
 Warmup Convergence Information,THERMAL ZONE 8,SizingPeriod: CHICAGO OHARE INTL AP ANN CLG 1% CONDNS DB=>MWB,4.2270520280E-003,6.1729321557E-003,Pass,Pass,1.4997750267E-002,1.5010236684E-002,Pass,Pass
 Warmup Convergence Information,THERMAL ZONE 3,SizingPeriod: CHICAGO OHARE INTL AP ANN CLG 1% CONDNS DB=>MWB,9.9711609881E-004,9.7635381065E-004,Pass,Pass,1.2297892717,8.6237835672,Pass,Pass
 Warmup Convergence Information,THERMAL ZONE 4,SizingPeriod: CHICAGO OHARE INTL AP ANN CLG 1% CONDNS DB=>MWB,8.3617855464E-002,0.1362874234,Pass,Pass,4.7190195339E-002,3.7332691745E-002,Pass,Pass
 Warmup Convergence Information,THERMAL ZONE 12,SizingPeriod: CHICAGO OHARE INTL AP ANN CLG 1% CONDNS DB=>MWB,3.6045767027E-002,5.4499733656E-002,Pass,Pass,4.6752631496E-002,5.4432986153E-002,Pass,Pass
 Warmup Convergence Information,THERMAL ZONE 2,SizingPeriod: CHICAGO OHARE INTL AP ANN CLG 1% CONDNS DB=>MWB,8.3653319963E-002,0.1453657845,Pass,Pass,6.8609748136E-002,7.0438146475E-002,Pass,Pass
 Warmup Convergence Information,THERMAL ZONE 9,SizingPeriod: CHICAGO OHARE INTL AP ANN CLG 1% CONDNS DB=>MWB,8.3849709458E-002,0.1699015245,Pass,Pass,0.2366455517,0.8078725175,Pass,Pass
 Warmup Convergence Information,THERMAL ZONE 7,SizingPeriod: CHICAGO OHARE INTL AP ANN CLG 1% CONDNS DB=>MWB,8.4092150187E-002,0.2049504805,Pass,Pass,0.2538324323,0.5836435967,Pass,Pass
 Warmup Convergence Information,THERMAL ZONE 11,SizingPeriod: CHICAGO OHARE INTL AP ANN CLG 1% CONDNS DB=>MWB,8.3627050215E-002,0.1179225339,Pass,Pass,4.6268940216E-002,3.5331272759E-002,Pass,Pass
 Warmup Convergence Information,THERMAL ZONE 6,SizingPeriod: CHICAGO OHARE INTL AP ANN CLG 1% CONDNS DB=>MWB,8.3615195797E-002,0.1409944447,Pass,Pass,5.0737145852E-002,5.2946641020E-002,Pass,Pass
 Warmup Convergence Information,THERMAL ZONE 13,SizingPeriod: CHICAGO OHARE INTL AP ANN CLG 1% CONDNS DB=>MWB,8.3592028691E-002,0.1230629799,Pass,Pass,6.0448035024E-002,4.5557643843E-002,Pass,Pass
 Warmup Convergence Information,THERMAL ZONE 1,SizingPeriod: CHICAGO OHARE INTL AP ANN CLG 1% CONDNS DB=>MWB,8.3856477487E-002,0.1387379044,Pass,Pass,5.3429202538E-002,4.1196977134E-002,Pass,Pass
Environment,CHICAGO OHARE INTL AP ANN HTG 99.6% CONDNS DB,SizingPeriod:DesignDay,01/21,01/21,WinterDesignDay,1,N/A,N/A,N/A,N/A,N/A,N/A
Environment:Daylight Saving,No,SizingPeriod:DesignDay
Environment:Design Day Data,-20.00,0.00,DefaultMultipliers,98934,270,4.9,0.00,No ,No 
Environment:Design_Day_Misc, 21,1229.0,0.1415,5.7310E-002,1.0,-11.15,-20.1,ASHRAEClearSky
Environment:WarmupDays,  6
 Warmup Convergence Information,THERMAL ZONE 5,SizingPeriod: CHICAGO OHARE INTL AP ANN HTG 99.6% CONDNS DB,3.2633204377E-005,8.2568963156E-006,Pass,Pass,9.7261478174E-006,7.0131533787E-006,Pass,Pass
 Warmup Convergence Information,THERMAL ZONE 14,SizingPeriod: CHICAGO OHARE INTL AP ANN HTG 99.6% CONDNS DB,3.1075656921E-005,2.0657907950E-005,Pass,Pass,1.1396161450E-005,8.4878841494E-006,Pass,Pass
 Warmup Convergence Information,THERMAL ZONE 10,SizingPeriod: CHICAGO OHARE INTL AP ANN HTG 99.6% CONDNS DB,1.0569786089E-004,2.5129326697E-005,Pass,Pass,1.2996550960E-005,9.6598929465E-006,Pass,Pass
 Warmup Convergence Information,THERMAL ZONE 15,SizingPeriod: CHICAGO OHARE INTL AP ANN HTG 99.6% CONDNS DB,1.5105562348E-005,1.4101339479E-005,Pass,Pass,1.0186065812E-005,7.7995682517E-006,Pass,Pass
 Warmup Convergence Information,THERMAL ZONE 8,SizingPeriod: CHICAGO OHARE INTL AP ANN HTG 99.6% CONDNS DB,1.0884205861E-004,2.5865956391E-005,Pass,Pass,1.3697747626E-005,1.0221054654E-005,Pass,Pass
 Warmup Convergence Information,THERMAL ZONE 3,SizingPeriod: CHICAGO OHARE INTL AP ANN HTG 99.6% CONDNS DB,1.5215754569E-005,1.4203684868E-005,Pass,Pass,1.0244544942E-005,7.8443298293E-006,Pass,Pass
 Warmup Convergence Information,THERMAL ZONE 4,SizingPeriod: CHICAGO OHARE INTL AP ANN HTG 99.6% CONDNS DB,8.9557039972E-003,3.1773954900E-003,Pass,Pass,5.3352168977E-003,1.4630321616E-003,Pass,Pass
 Warmup Convergence Information,THERMAL ZONE 12,SizingPeriod: CHICAGO OHARE INTL AP ANN HTG 99.6% CONDNS DB,3.3034716586E-005,2.3426833086E-005,Pass,Pass,1.1546108341E-005,8.6018565375E-006,Pass,Pass
 Warmup Convergence Information,THERMAL ZONE 2,SizingPeriod: CHICAGO OHARE INTL AP ANN HTG 99.6% CONDNS DB,2.8594659971E-005,1.0080639667E-005,Pass,Pass,3.8420057709E-006,2.8781533917E-006,Pass,Pass
 Warmup Convergence Information,THERMAL ZONE 9,SizingPeriod: CHICAGO OHARE INTL AP ANN HTG 99.6% CONDNS DB,1.5000753768E-005,1.3961052152E-005,Pass,Pass,9.9774409611E-006,7.6395377881E-006,Pass,Pass
 Warmup Convergence Information,THERMAL ZONE 7,SizingPeriod: CHICAGO OHARE INTL AP ANN HTG 99.6% CONDNS DB,1.3666764182E-005,1.1723873040E-005,Pass,Pass,9.7607416711E-006,7.4572992878E-006,Pass,Pass
 Warmup Convergence Information,THERMAL ZONE 11,SizingPeriod: CHICAGO OHARE INTL AP ANN HTG 99.6% CONDNS DB,3.2931831754E-005,2.3270629880E-005,Pass,Pass,1.1483985710E-005,8.5532182273E-006,Pass,Pass
 Warmup Convergence Information,THERMAL ZONE 6,SizingPeriod: CHICAGO OHARE INTL AP ANN HTG 99.6% CONDNS DB,3.2306022755E-005,1.6085343218E-005,Pass,Pass,6.4111531862E-006,4.6727318438E-006,Pass,Pass
 Warmup Convergence Information,THERMAL ZONE 13,SizingPeriod: CHICAGO OHARE INTL AP ANN HTG 99.6% CONDNS DB,3.0363328484E-005,1.9265812207E-005,Pass,Pass,1.0267489146E-005,7.6095920488E-006,Pass,Pass
 Warmup Convergence Information,THERMAL ZONE 1,SizingPeriod: CHICAGO OHARE INTL AP ANN HTG 99.6% CONDNS DB,4.8706040840E-003,2.2292421949E-003,Pass,Pass,2.9882659820E-003,1.4407924436E-003,Pass,Pass
Environment,CHICAGO OHARE INTL AP ANN CLG 2% CONDNS WB=>MDB,SizingPeriod:DesignDay,07/21,07/21,SummerDesignDay,1,N/A,N/A,N/A,N/A,N/A,N/A
Environment:Daylight Saving,No,SizingPeriod:DesignDay
Environment:Design Day Data,28.10,10.50,DefaultMultipliers,98934,230,5.2,0.00,No ,No 
Environment:Design_Day_Misc,202,1084.4,0.2082,0.1365,1.0,-6.23,20.6,ASHRAETau
Environment:WarmupDays,  6
 Warmup Convergence Information,THERMAL ZONE 5,SizingPeriod: CHICAGO OHARE INTL AP ANN CLG 2% CONDNS WB=>MDB,4.6976656931E-003,4.7186071060E-003,Pass,Pass,3.1826257210E-003,3.9602805229E-003,Pass,Pass
 Warmup Convergence Information,THERMAL ZONE 14,SizingPeriod: CHICAGO OHARE INTL AP ANN CLG 2% CONDNS WB=>MDB,1.9874879568E-002,4.5452707712E-002,Pass,Pass,0.1915414172,0.5087102077,Pass,Pass
 Warmup Convergence Information,THERMAL ZONE 10,SizingPeriod: CHICAGO OHARE INTL AP ANN CLG 2% CONDNS WB=>MDB,8.0488606160E-005,7.0469841611E-005,Pass,Pass,0.2332452292,0.6485503102,Pass,Pass
 Warmup Convergence Information,THERMAL ZONE 15,SizingPeriod: CHICAGO OHARE INTL AP ANN CLG 2% CONDNS WB=>MDB,8.4174700297E-002,0.1467153653,Pass,Pass,0.1993669054,0.5471870875,Pass,Pass
 Warmup Convergence Information,THERMAL ZONE 8,SizingPeriod: CHICAGO OHARE INTL AP ANN CLG 2% CONDNS WB=>MDB,1.6229993744E-004,1.4284625661E-004,Pass,Pass,2.9115291774E-002,1.7263901559E-002,Pass,Pass
 Warmup Convergence Information,THERMAL ZONE 3,SizingPeriod: CHICAGO OHARE INTL AP ANN CLG 2% CONDNS WB=>MDB,1.1364526188E-003,1.2682590196E-003,Pass,Pass,0.2604477617,0.6761002165,Pass,Pass
 Warmup Convergence Information,THERMAL ZONE 4,SizingPeriod: CHICAGO OHARE INTL AP ANN CLG 2% CONDNS WB=>MDB,8.3963409008E-002,0.1449098953,Pass,Pass,6.8654894334E-002,4.7955685936E-002,Pass,Pass
 Warmup Convergence Information,THERMAL ZONE 12,SizingPeriod: CHICAGO OHARE INTL AP ANN CLG 2% CONDNS WB=>MDB,1.9597147121E-002,4.5361590171E-002,Pass,Pass,0.1529976857,0.3438567027,Pass,Pass
 Warmup Convergence Information,THERMAL ZONE 2,SizingPeriod: CHICAGO OHARE INTL AP ANN CLG 2% CONDNS WB=>MDB,8.3880978701E-002,0.1421628450,Pass,Pass,0.3023823648,1.7667836417,Pass,Pass
 Warmup Convergence Information,THERMAL ZONE 9,SizingPeriod: CHICAGO OHARE INTL AP ANN CLG 2% CONDNS WB=>MDB,8.4113665317E-002,0.1756434871,Pass,Pass,0.2033498639,0.6568741306,Pass,Pass
 Warmup Convergence Information,THERMAL ZONE 7,SizingPeriod: CHICAGO OHARE INTL AP ANN CLG 2% CONDNS WB=>MDB,8.4083495567E-002,0.2096276384,Pass,Pass,0.2673398093,0.6295374342,Pass,Pass
 Warmup Convergence Information,THERMAL ZONE 11,SizingPeriod: CHICAGO OHARE INTL AP ANN CLG 2% CONDNS WB=>MDB,8.3710741444E-002,0.1175947213,Pass,Pass,0.2359967168,0.9334836544,Pass,Pass
 Warmup Convergence Information,THERMAL ZONE 6,SizingPeriod: CHICAGO OHARE INTL AP ANN CLG 2% CONDNS WB=>MDB,8.3872339870E-002,0.1368670326,Pass,Pass,0.1343639160,0.3531356784,Pass,Pass
 Warmup Convergence Information,THERMAL ZONE 13,SizingPeriod: CHICAGO OHARE INTL AP ANN CLG 2% CONDNS WB=>MDB,8.3712464100E-002,0.1226299994,Pass,Pass,0.2879327562,1.2354248659,Pass,Pass
 Warmup Convergence Information,THERMAL ZONE 1,SizingPeriod: CHICAGO OHARE INTL AP ANN CLG 2% CONDNS WB=>MDB,8.3859290274E-002,0.1450656186,Pass,Pass,8.4198999045E-002,6.9168112722E-002,Pass,Pass
Environment,CHICAGO OHARE INTL AP ANN CLG 2% CONDNS DB=>MWB,SizingPeriod:DesignDay,07/21,07/21,SummerDesignDay,1,N/A,N/A,N/A,N/A,N/A,N/A
Environment:Daylight Saving,No,SizingPeriod:DesignDay
Environment:Design Day Data,30.10,10.50,DefaultMultipliers,98934,230,5.2,0.00,No ,No 
Environment:Design_Day_Misc,202,1084.4,0.2082,0.1365,1.0,-6.23,20.6,ASHRAETau
Environment:WarmupDays,  6
 Warmup Convergence Information,THERMAL ZONE 5,SizingPeriod: CHICAGO OHARE INTL AP ANN CLG 2% CONDNS DB=>MWB,4.0131072698E-003,4.2843164919E-003,Pass,Pass,3.6105618439E-003,4.0912196825E-003,Pass,Pass
 Warmup Convergence Information,THERMAL ZONE 14,SizingPeriod: CHICAGO OHARE INTL AP ANN CLG 2% CONDNS DB=>MWB,2.7744887991E-002,5.3075025535E-002,Pass,Pass,0.2045261260,0.6730344571,Pass,Pass
 Warmup Convergence Information,THERMAL ZONE 10,SizingPeriod: CHICAGO OHARE INTL AP ANN CLG 2% CONDNS DB=>MWB,8.0389685853E-005,6.9882064079E-005,Pass,Pass,0.3084704296,1.1172074571,Pass,Pass
 Warmup Convergence Information,THERMAL ZONE 15,SizingPeriod: CHICAGO OHARE INTL AP ANN CLG 2% CONDNS DB=>MWB,8.3997929796E-002,0.1486457601,Pass,Pass,0.2479624727,0.8033954616,Pass,Pass
 Warmup Convergence Information,THERMAL ZONE 8,SizingPeriod: CHICAGO OHARE INTL AP ANN CLG 2% CONDNS DB=>MWB,1.2603320588E-003,2.7042802873E-003,Pass,Pass,2.1628364230E-002,1.4384455703E-002,Pass,Pass
 Warmup Convergence Information,THERMAL ZONE 3,SizingPeriod: CHICAGO OHARE INTL AP ANN CLG 2% CONDNS DB=>MWB,1.0347312401E-003,9.8184514630E-004,Pass,Pass,0.8264789834,5.5118551030,Pass,Pass
 Warmup Convergence Information,THERMAL ZONE 4,SizingPeriod: CHICAGO OHARE INTL AP ANN CLG 2% CONDNS DB=>MWB,8.3764782805E-002,0.1421828145,Pass,Pass,5.3799347350E-002,3.8000479457E-002,Pass,Pass
 Warmup Convergence Information,THERMAL ZONE 12,SizingPeriod: CHICAGO OHARE INTL AP ANN CLG 2% CONDNS DB=>MWB,2.8482753674E-002,5.2259245276E-002,Pass,Pass,0.1218270366,0.2837128109,Pass,Pass
 Warmup Convergence Information,THERMAL ZONE 2,SizingPeriod: CHICAGO OHARE INTL AP ANN CLG 2% CONDNS DB=>MWB,8.3780550543E-002,0.1443906471,Pass,Pass,0.1474522970,0.3528517471,Pass,Pass
 Warmup Convergence Information,THERMAL ZONE 9,SizingPeriod: CHICAGO OHARE INTL AP ANN CLG 2% CONDNS DB=>MWB,8.3961568304E-002,0.1725983245,Pass,Pass,0.3362742795,1.6896563638,Pass,Pass
 Warmup Convergence Information,THERMAL ZONE 7,SizingPeriod: CHICAGO OHARE INTL AP ANN CLG 2% CONDNS DB=>MWB,8.4079881231E-002,0.2062693269,Pass,Pass,0.2337993891,0.4506423774,Pass,Pass
 Warmup Convergence Information,THERMAL ZONE 11,SizingPeriod: CHICAGO OHARE INTL AP ANN CLG 2% CONDNS DB=>MWB,8.3741817612E-002,0.1182175797,Pass,Pass,5.7190680620E-002,4.4850210300E-002,Pass,Pass
 Warmup Convergence Information,THERMAL ZONE 6,SizingPeriod: CHICAGO OHARE INTL AP ANN CLG 2% CONDNS DB=>MWB,8.3749051326E-002,0.1390413761,Pass,Pass,6.3146926973E-002,6.5796129394E-002,Pass,Pass
 Warmup Convergence Information,THERMAL ZONE 13,SizingPeriod: CHICAGO OHARE INTL AP ANN CLG 2% CONDNS DB=>MWB,8.3733506397E-002,0.1229961033,Pass,Pass,8.9146981114E-002,9.1430576002E-002,Pass,Pass
 Warmup Convergence Information,THERMAL ZONE 1,SizingPeriod: CHICAGO OHARE INTL AP ANN CLG 2% CONDNS DB=>MWB,8.3906187922E-002,0.1428279187,Pass,Pass,6.1694361024E-002,4.4315828674E-002,Pass,Pass
Environment,CHICAGO OHARE INTL AP ANN CLG .4% CONDNS WB=>MDB,SizingPeriod:DesignDay,07/21,07/21,SummerDesignDay,1,N/A,N/A,N/A,N/A,N/A,N/A
Environment:Daylight Saving,No,SizingPeriod:DesignDay
Environment:Design Day Data,31.20,10.50,DefaultMultipliers,98934,230,5.2,0.00,No ,No 
Environment:Design_Day_Misc,202,1084.4,0.2082,0.1365,1.0,-6.23,20.6,ASHRAETau
Environment:WarmupDays,  6
 Warmup Convergence Information,THERMAL ZONE 5,SizingPeriod: CHICAGO OHARE INTL AP ANN CLG .4% CONDNS WB=>MDB,3.6210491420E-003,4.0403731534E-003,Pass,Pass,3.8354655523E-003,4.4288607568E-003,Pass,Pass
 Warmup Convergence Information,THERMAL ZONE 14,SizingPeriod: CHICAGO OHARE INTL AP ANN CLG .4% CONDNS WB=>MDB,3.2987180488E-002,5.5503282783E-002,Pass,Pass,0.1305469958,0.3159149046,Pass,Pass
 Warmup Convergence Information,THERMAL ZONE 10,SizingPeriod: CHICAGO OHARE INTL AP ANN CLG .4% CONDNS WB=>MDB,6.9725020470E-005,6.0351127319E-005,Pass,Pass,0.2341198892,0.6659070337,Pass,Pass
 Warmup Convergence Information,THERMAL ZONE 15,SizingPeriod: CHICAGO OHARE INTL AP ANN CLG .4% CONDNS WB=>MDB,8.4145768143E-002,0.1502338972,Pass,Pass,0.2877324499,1.2394646402,Pass,Pass
 Warmup Convergence Information,THERMAL ZONE 8,SizingPeriod: CHICAGO OHARE INTL AP ANN CLG .4% CONDNS WB=>MDB,3.6636781495E-003,5.6373907950E-003,Pass,Pass,1.6100191837E-002,1.4307029741E-002,Pass,Pass
 Warmup Convergence Information,THERMAL ZONE 3,SizingPeriod: CHICAGO OHARE INTL AP ANN CLG .4% CONDNS WB=>MDB,8.5626527248E-004,7.9513535225E-004,Pass,Pass,0.5115102631,1.8016733310,Pass,Pass
 Warmup Convergence Information,THERMAL ZONE 4,SizingPeriod: CHICAGO OHARE INTL AP ANN CLG .4% CONDNS WB=>MDB,8.3820223394E-002,0.1372761614,Pass,Pass,4.8521655649E-002,3.7496769618E-002,Pass,Pass
 Warmup Convergence Information,THERMAL ZONE 12,SizingPeriod: CHICAGO OHARE INTL AP ANN CLG .4% CONDNS WB=>MDB,3.4656529406E-002,5.4097444081E-002,Pass,Pass,5.1714408986E-002,6.0349461909E-002,Pass,Pass
 Warmup Convergence Information,THERMAL ZONE 2,SizingPeriod: CHICAGO OHARE INTL AP ANN CLG .4% CONDNS WB=>MDB,8.3754992091E-002,0.1448680913,Pass,Pass,7.4544787098E-002,8.0979228284E-002,Pass,Pass
 Warmup Convergence Information,THERMAL ZONE 9,SizingPeriod: CHICAGO OHARE INTL AP ANN CLG .4% CONDNS WB=>MDB,8.4114370453E-002,0.1708192143,Pass,Pass,0.1970897807,0.5251920196,Pass,Pass
 Warmup Convergence Information,THERMAL ZONE 7,SizingPeriod: CHICAGO OHARE INTL AP ANN CLG .4% CONDNS WB=>MDB,8.3977689252E-002,0.2054307754,Pass,Pass,0.5902735959,3.7979570577,Pass,Pass
 Warmup Convergence Information,THERMAL ZONE 11,SizingPeriod: CHICAGO OHARE INTL AP ANN CLG .4% CONDNS WB=>MDB,8.3595074867E-002,0.1179271365,Pass,Pass,4.8108710958E-002,3.6474448816E-002,Pass,Pass
 Warmup Convergence Information,THERMAL ZONE 6,SizingPeriod: CHICAGO OHARE INTL AP ANN CLG .4% CONDNS WB=>MDB,8.3662524943E-002,0.1401448211,Pass,Pass,5.2986213664E-002,5.4378065394E-002,Pass,Pass
 Warmup Convergence Information,THERMAL ZONE 13,SizingPeriod: CHICAGO OHARE INTL AP ANN CLG .4% CONDNS WB=>MDB,8.3686426469E-002,0.1234921727,Pass,Pass,6.3990157618E-002,5.0235014995E-002,Pass,Pass
 Warmup Convergence Information,THERMAL ZONE 1,SizingPeriod: CHICAGO OHARE INTL AP ANN CLG .4% CONDNS WB=>MDB,8.3753527118E-002,0.1389578615,Pass,Pass,5.5083730673E-002,4.1044511813E-002,Pass,Pass
Environment,CHICAGO OHARE INTL AP ANN HTG WIND 99% CONDNS WS=>MCDB,SizingPeriod:DesignDay,01/21,01/21,WinterDesignDay,1,N/A,N/A,N/A,N/A,N/A,N/A
Environment:Daylight Saving,No,SizingPeriod:DesignDay
Environment:Design Day Data,-3.20,0.00,DefaultMultipliers,98934,270,11.4,0.00,No ,No 
Environment:Design_Day_Misc, 21,1229.0,0.1415,5.7310E-002,1.0,-11.15,-20.1,ASHRAEClearSky
Environment:WarmupDays,  6
 Warmup Convergence Information,THERMAL ZONE 5,SizingPeriod: CHICAGO OHARE INTL AP ANN HTG WIND 99% CONDNS WS=>MCDB,2.3539951047E-006,1.5844964771E-006,Pass,Pass,9.8858667041E-006,6.4519111122E-006,Pass,Pass
 Warmup Convergence Information,THERMAL ZONE 14,SizingPeriod: CHICAGO OHARE INTL AP ANN HTG WIND 99% CONDNS WS=>MCDB,9.4572078277E-006,6.6260654705E-006,Pass,Pass,9.2197146912E-006,5.9730262142E-006,Pass,Pass
 Warmup Convergence Information,THERMAL ZONE 10,SizingPeriod: CHICAGO OHARE INTL AP ANN HTG WIND 99% CONDNS WS=>MCDB,2.3531888548E-006,1.8085002962E-006,Pass,Pass,1.0415553402E-005,6.8015161433E-006,Pass,Pass
 Warmup Convergence Information,THERMAL ZONE 15,SizingPeriod: CHICAGO OHARE INTL AP ANN HTG WIND 99% CONDNS WS=>MCDB,1.0533201017E-005,7.3276753783E-006,Pass,Pass,9.1415541150E-006,5.9165315991E-006,Pass,Pass
 Warmup Convergence Information,THERMAL ZONE 8,SizingPeriod: CHICAGO OHARE INTL AP ANN HTG WIND 99% CONDNS WS=>MCDB,2.2180727250E-006,1.5648573972E-006,Pass,Pass,1.0208280323E-005,6.6472076505E-006,Pass,Pass
 Warmup Convergence Information,THERMAL ZONE 3,SizingPeriod: CHICAGO OHARE INTL AP ANN HTG WIND 99% CONDNS WS=>MCDB,1.0518406066E-005,7.3936008276E-006,Pass,Pass,9.1405143167E-006,5.9141053718E-006,Pass,Pass
 Warmup Convergence Information,THERMAL ZONE 4,SizingPeriod: CHICAGO OHARE INTL AP ANN HTG WIND 99% CONDNS WS=>MCDB,9.7588665857E-006,6.6423334422E-006,Pass,Pass,8.1321082684E-006,5.2972775601E-006,Pass,Pass
 Warmup Convergence Information,THERMAL ZONE 12,SizingPeriod: CHICAGO OHARE INTL AP ANN HTG WIND 99% CONDNS WS=>MCDB,1.0296757549E-005,7.2991451409E-006,Pass,Pass,9.0971103992E-006,5.8803347981E-006,Pass,Pass
 Warmup Convergence Information,THERMAL ZONE 2,SizingPeriod: CHICAGO OHARE INTL AP ANN HTG WIND 99% CONDNS WS=>MCDB,4.9757794535E-003,9.0869357686E-006,Pass,Pass,5.3254958648E-003,1.6352944735E-005,Pass,Pass
 Warmup Convergence Information,THERMAL ZONE 9,SizingPeriod: CHICAGO OHARE INTL AP ANN HTG WIND 99% CONDNS WS=>MCDB,5.1077894327E-003,1.0759150632E-005,Pass,Pass,4.8385206760E-003,1.4554292396E-005,Pass,Pass
 Warmup Convergence Information,THERMAL ZONE 7,SizingPeriod: CHICAGO OHARE INTL AP ANN HTG WIND 99% CONDNS WS=>MCDB,5.2698728996E-003,1.0912802825E-005,Pass,Pass,4.9183073175E-003,1.4839739058E-005,Pass,Pass
 Warmup Convergence Information,THERMAL ZONE 11,SizingPeriod: CHICAGO OHARE INTL AP ANN HTG WIND 99% CONDNS WS=>MCDB,1.0304571166E-005,7.2447273255E-006,Pass,Pass,9.0976427070E-006,5.8821591888E-006,Pass,Pass
 Warmup Convergence Information,THERMAL ZONE 6,SizingPeriod: CHICAGO OHARE INTL AP ANN HTG WIND 99% CONDNS WS=>MCDB,3.4073501325E-003,2.6746509207E-003,Pass,Pass,2.4826389758E-003,2.2165544862E-003,Pass,Pass
 Warmup Convergence Information,THERMAL ZONE 13,SizingPeriod: CHICAGO OHARE INTL AP ANN HTG WIND 99% CONDNS WS=>MCDB,1.2764892447E-003,1.6959254561E-003,Pass,Pass,9.5735682780E-004,1.4050795672E-003,Pass,Pass
 Warmup Convergence Information,THERMAL ZONE 1,SizingPeriod: CHICAGO OHARE INTL AP ANN HTG WIND 99% CONDNS WS=>MCDB,2.2639902973E-003,2.4543325641E-003,Pass,Pass,1.2182985137E-003,1.6854212995E-003,Pass,Pass
Environment,CHICAGO OHARE INTL AP ANN HTG WIND 99.6% CONDNS WS=>MCDB,SizingPeriod:DesignDay,01/21,01/21,WinterDesignDay,1,N/A,N/A,N/A,N/A,N/A,N/A
Environment:Daylight Saving,No,SizingPeriod:DesignDay
Environment:Design Day Data,-3.50,0.00,DefaultMultipliers,98934,270,12.4,0.00,No ,No 
Environment:Design_Day_Misc, 21,1229.0,0.1415,5.7310E-002,1.0,-11.15,-20.1,ASHRAEClearSky
Environment:WarmupDays,  6
 Warmup Convergence Information,THERMAL ZONE 5,SizingPeriod: CHICAGO OHARE INTL AP ANN HTG WIND 99.6% CONDNS WS=>MCDB,1.8575753716E-005,1.1157169684E-005,Pass,Pass,6.1220172924E-005,3.7790825815E-005,Pass,Pass
 Warmup Convergence Information,THERMAL ZONE 14,SizingPeriod: CHICAGO OHARE INTL AP ANN HTG WIND 99.6% CONDNS WS=>MCDB,2.5099577565E-003,3.1706283008E-003,Pass,Pass,1.5104549000E-003,2.2051515463E-003,Pass,Pass
 Warmup Convergence Information,THERMAL ZONE 10,SizingPeriod: CHICAGO OHARE INTL AP ANN HTG WIND 99.6% CONDNS WS=>MCDB,8.7483705142E-006,5.3997046957E-006,Pass,Pass,6.4414451101E-005,3.9796054947E-005,Pass,Pass
 Warmup Convergence Information,THERMAL ZONE 15,SizingPeriod: CHICAGO OHARE INTL AP ANN HTG WIND 99.6% CONDNS WS=>MCDB,9.4949892450E-005,3.8854701010E-005,Pass,Pass,5.5372752369E-005,3.2429329606E-005,Pass,Pass
 Warmup Convergence Information,THERMAL ZONE 8,SizingPeriod: CHICAGO OHARE INTL AP ANN HTG WIND 99.6% CONDNS WS=>MCDB,1.2060013271E-003,5.7825990040E-004,Pass,Pass,4.4218718713E-003,2.6180907529E-003,Pass,Pass
 Warmup Convergence Information,THERMAL ZONE 3,SizingPeriod: CHICAGO OHARE INTL AP ANN HTG WIND 99.6% CONDNS WS=>MCDB,9.4779633385E-005,3.9259697800E-005,Pass,Pass,5.5400534318E-005,3.2397889838E-005,Pass,Pass
 Warmup Convergence Information,THERMAL ZONE 4,SizingPeriod: CHICAGO OHARE INTL AP ANN HTG WIND 99.6% CONDNS WS=>MCDB,8.7431094391E-005,3.9043324529E-005,Pass,Pass,5.0191376008E-005,3.0496544327E-005,Pass,Pass
 Warmup Convergence Information,THERMAL ZONE 12,SizingPeriod: CHICAGO OHARE INTL AP ANN HTG WIND 99.6% CONDNS WS=>MCDB,9.3403714608E-005,3.8987544390E-005,Pass,Pass,5.5225796510E-005,3.2391085179E-005,Pass,Pass
 Warmup Convergence Information,THERMAL ZONE 2,SizingPeriod: CHICAGO OHARE INTL AP ANN HTG WIND 99.6% CONDNS WS=>MCDB,7.9839847455E-005,3.5671562472E-005,Pass,Pass,5.2040138532E-005,3.1479304751E-005,Pass,Pass
 Warmup Convergence Information,THERMAL ZONE 9,SizingPeriod: CHICAGO OHARE INTL AP ANN HTG WIND 99.6% CONDNS WS=>MCDB,9.5653532416E-005,3.9518511453E-005,Pass,Pass,5.5328962369E-005,3.2457424591E-005,Pass,Pass
 Warmup Convergence Information,THERMAL ZONE 7,SizingPeriod: CHICAGO OHARE INTL AP ANN HTG WIND 99.6% CONDNS WS=>MCDB,5.2029515711E-003,1.1254101089E-004,Pass,Pass,4.8111934152E-003,6.5122507649E-005,Pass,Pass
 Warmup Convergence Information,THERMAL ZONE 11,SizingPeriod: CHICAGO OHARE INTL AP ANN HTG WIND 99.6% CONDNS WS=>MCDB,9.3565490450E-005,3.8606932583E-005,Pass,Pass,5.5198164343E-005,3.2420606500E-005,Pass,Pass
 Warmup Convergence Information,THERMAL ZONE 6,SizingPeriod: CHICAGO OHARE INTL AP ANN HTG WIND 99.6% CONDNS WS=>MCDB,8.9883106927E-005,3.8681547255E-005,Pass,Pass,5.2600948308E-005,3.1476147983E-005,Pass,Pass
 Warmup Convergence Information,THERMAL ZONE 13,SizingPeriod: CHICAGO OHARE INTL AP ANN HTG WIND 99.6% CONDNS WS=>MCDB,5.5091042577E-003,2.8572513062E-003,Pass,Pass,4.0325064940E-003,2.3604776171E-003,Pass,Pass
 Warmup Convergence Information,THERMAL ZONE 1,SizingPeriod: CHICAGO OHARE INTL AP ANN HTG WIND 99.6% CONDNS WS=>MCDB,3.4890280019E-003,8.9993167031E-005,Pass,Pass,3.6141884107E-003,5.8829688371E-005,Pass,Pass
Environment,CHICAGO OHARE INTL AP ANN HTG 99% CONDNS DB,SizingPeriod:DesignDay,01/21,01/21,WinterDesignDay,1,N/A,N/A,N/A,N/A,N/A,N/A
Environment:Daylight Saving,No,SizingPeriod:DesignDay
Environment:Design Day Data,-16.60,0.00,DefaultMultipliers,98934,270,4.9,0.00,No ,No 
Environment:Design_Day_Misc, 21,1229.0,0.1415,5.7310E-002,1.0,-11.15,-20.1,ASHRAEClearSky
Environment:WarmupDays,  6
 Warmup Convergence Information,THERMAL ZONE 5,SizingPeriod: CHICAGO OHARE INTL AP ANN HTG 99% CONDNS DB,2.4593722821E-005,5.4124422637E-006,Pass,Pass,2.0528120745E-006,4.7410004958E-007,Pass,Pass
 Warmup Convergence Information,THERMAL ZONE 14,SizingPeriod: CHICAGO OHARE INTL AP ANN HTG 99% CONDNS DB,2.3904268323E-005,5.0526434009E-006,Pass,Pass,1.8857010303E-006,4.2303103933E-007,Pass,Pass
 Warmup Convergence Information,THERMAL ZONE 10,SizingPeriod: CHICAGO OHARE INTL AP ANN HTG 99% CONDNS DB,7.8668896135E-005,1.7511028545E-005,Pass,Pass,6.7511676643E-006,1.5284891587E-006,Pass,Pass
 Warmup Convergence Information,THERMAL ZONE 15,SizingPeriod: CHICAGO OHARE INTL AP ANN HTG 99% CONDNS DB,8.3561939828E-006,1.6596153580E-006,Pass,Pass,5.6955237582E-007,1.3397943640E-007,Pass,Pass
 Warmup Convergence Information,THERMAL ZONE 8,SizingPeriod: CHICAGO OHARE INTL AP ANN HTG 99% CONDNS DB,8.0249365263E-005,1.7706172574E-005,Pass,Pass,6.7890329764E-006,1.5245872262E-006,Pass,Pass
 Warmup Convergence Information,THERMAL ZONE 3,SizingPeriod: CHICAGO OHARE INTL AP ANN HTG 99% CONDNS DB,8.4197673621E-006,1.6702731722E-006,Pass,Pass,5.7257744634E-007,1.3455888996E-007,Pass,Pass
 Warmup Convergence Information,THERMAL ZONE 4,SizingPeriod: CHICAGO OHARE INTL AP ANN HTG 99% CONDNS DB,1.8956919120E-005,3.0938469921E-006,Pass,Pass,1.6660379544E-006,2.7146460078E-007,Pass,Pass
 Warmup Convergence Information,THERMAL ZONE 12,SizingPeriod: CHICAGO OHARE INTL AP ANN HTG 99% CONDNS DB,2.4895038439E-005,5.1773934015E-006,Pass,Pass,1.9591706121E-006,4.3160366034E-007,Pass,Pass
 Warmup Convergence Information,THERMAL ZONE 2,SizingPeriod: CHICAGO OHARE INTL AP ANN HTG 99% CONDNS DB,1.5122553537E-005,2.0663103250E-006,Pass,Pass,1.5903744854E-006,2.2020862716E-007,Pass,Pass
[...]
 Warmup Convergence Information,THERMAL ZONE 1,SizingPeriod: CHICAGO OHARE INTL AP ANN CLG .4% CONDNS DP=>MDB,8.3852045376E-002,0.1468347255,Pass,Pass,7.1558542507E-002,5.3892772445E-002,Pass,Pass
Environment,CHICAGO OHARE INTL AP ANN CLG .4% CONDNS ENTH=>MDB,SizingPeriod:DesignDay,07/21,07/21,SummerDesignDay,1,N/A,N/A,N/A,N/A,N/A,N/A
Environment:Daylight Saving,No,SizingPeriod:DesignDay
Environment:Design Day Data,31.40,10.50,DefaultMultipliers,98934,230,5.2,0.00,No ,No 
Environment:Design_Day_Misc,202,1084.4,0.2082,0.1365,1.0,-6.23,20.6,ASHRAETau
Environment:WarmupDays,  6
 Warmup Convergence Information,THERMAL ZONE 5,SizingPeriod: CHICAGO OHARE INTL AP ANN CLG .4% CONDNS ENTH=>MDB,3.5666013900E-003,3.9440578913E-003,Pass,Pass,3.5821701211E-003,3.9933330201E-003,Pass,Pass
 Warmup Convergence Information,THERMAL ZONE 14,SizingPeriod: CHICAGO OHARE INTL AP ANN CLG .4% CONDNS ENTH=>MDB,3.4471585395E-002,5.6051886860E-002,Pass,Pass,0.1129464516,0.2291656377,Pass,Pass
 Warmup Convergence Information,THERMAL ZONE 10,SizingPeriod: CHICAGO OHARE INTL AP ANN CLG .4% CONDNS ENTH=>MDB,8.2811265279E-005,8.0340456306E-005,Pass,Pass,0.2138167700,0.5291314672,Pass,Pass
 Warmup Convergence Information,THERMAL ZONE 15,SizingPeriod: CHICAGO OHARE INTL AP ANN CLG .4% CONDNS ENTH=>MDB,8.4096587199E-002,0.1504930396,Pass,Pass,0.1808159994,0.3834228151,Pass,Pass
 Warmup Convergence Information,THERMAL ZONE 8,SizingPeriod: CHICAGO OHARE INTL AP ANN CLG .4% CONDNS ENTH=>MDB,4.3479562256E-003,6.2583579784E-003,Pass,Pass,1.5109685946E-002,1.3910644640E-002,Pass,Pass
 Warmup Convergence Information,THERMAL ZONE 3,SizingPeriod: CHICAGO OHARE INTL AP ANN CLG .4% CONDNS ENTH=>MDB,8.9008817398E-004,9.0282303149E-004,Pass,Pass,0.7146256249,4.0345027355,Pass,Pass
 Warmup Convergence Information,THERMAL ZONE 4,SizingPeriod: CHICAGO OHARE INTL AP ANN CLG .4% CONDNS ENTH=>MDB,8.3824752376E-002,0.1363023744,Pass,Pass,4.7467877386E-002,3.7676048557E-002,Pass,Pass
 Warmup Convergence Information,THERMAL ZONE 12,SizingPeriod: CHICAGO OHARE INTL AP ANN CLG .4% CONDNS ENTH=>MDB,3.6295452375E-002,5.4760016082E-002,Pass,Pass,4.7305630161E-002,5.6043108054E-002,Pass,Pass
 Warmup Convergence Information,THERMAL ZONE 2,SizingPeriod: CHICAGO OHARE INTL AP ANN CLG .4% CONDNS ENTH=>MDB,8.3633373046E-002,0.1453814418,Pass,Pass,7.0168093671E-002,7.3164856025E-002,Pass,Pass
 Warmup Convergence Information,THERMAL ZONE 9,SizingPeriod: CHICAGO OHARE INTL AP ANN CLG .4% CONDNS ENTH=>MDB,8.3978623752E-002,0.1697332378,Pass,Pass,0.2646838216,1.0561337254,Pass,Pass
 Warmup Convergence Information,THERMAL ZONE 7,SizingPeriod: CHICAGO OHARE INTL AP ANN CLG .4% CONDNS ENTH=>MDB,8.4189487042E-002,0.2049995543,Pass,Pass,0.2668954688,0.6747117108,Pass,Pass
 Warmup Convergence Information,THERMAL ZONE 11,SizingPeriod: CHICAGO OHARE INTL AP ANN CLG .4% CONDNS ENTH=>MDB,8.3540213217E-002,0.1181500970,Pass,Pass,4.6794137766E-002,3.5769156474E-002,Pass,Pass
 Warmup Convergence Information,THERMAL ZONE 6,SizingPeriod: CHICAGO OHARE INTL AP ANN CLG .4% CONDNS ENTH=>MDB,8.3677887930E-002,0.1408879357,Pass,Pass,5.1305004684E-002,5.3316885232E-002,Pass,Pass
 Warmup Convergence Information,THERMAL ZONE 13,SizingPeriod: CHICAGO OHARE INTL AP ANN CLG .4% CONDNS ENTH=>MDB,8.3626194692E-002,0.1233080712,Pass,Pass,6.1389431514E-002,4.7213927645E-002,Pass,Pass
 Warmup Convergence Information,THERMAL ZONE 1,SizingPeriod: CHICAGO OHARE INTL AP ANN CLG .4% CONDNS ENTH=>MDB,8.3844912517E-002,0.1388830352,Pass,Pass,5.3763315610E-002,4.1986542215E-002,Pass,Pass
Environment,CHICAGO OHARE INTL AP ANN CLG 1% CONDNS DP=>MDB,SizingPeriod:DesignDay,07/21,07/21,SummerDesignDay,1,N/A,N/A,N/A,N/A,N/A,N/A
Environment:Daylight Saving,No,SizingPeriod:DesignDay
Environment:Design Day Data,27.70,10.50,DefaultMultipliers,98934,230,5.2,0.00,No ,No 
Environment:Design_Day_Misc,202,1084.4,0.2082,0.1365,1.0,-6.23,20.6,ASHRAETau
Environment:WarmupDays,  6
 Warmup Convergence Information,THERMAL ZONE 5,SizingPeriod: CHICAGO OHARE INTL AP ANN CLG 1% CONDNS DP=>MDB,4.7179290608E-003,4.8481752636E-003,Pass,Pass,3.2753115735E-003,3.5678937589E-003,Pass,Pass
 Warmup Convergence Information,THERMAL ZONE 14,SizingPeriod: CHICAGO OHARE INTL AP ANN CLG 1% CONDNS DP=>MDB,1.8406327642E-002,4.3192395745E-002,Pass,Pass,0.2299009761,0.8430669910,Pass,Pass
 Warmup Convergence Information,THERMAL ZONE 10,SizingPeriod: CHICAGO OHARE INTL AP ANN CLG 1% CONDNS DP=>MDB,9.0494654614E-005,7.9980850039E-005,Pass,Pass,0.2383050723,0.6751034499,Pass,Pass
 Warmup Convergence Information,THERMAL ZONE 15,SizingPeriod: CHICAGO OHARE INTL AP ANN CLG 1% CONDNS DP=>MDB,8.4206202599E-002,0.1464736666,Pass,Pass,0.4368190215,2.4467198604,Pass,Pass
 Warmup Convergence Information,THERMAL ZONE 8,SizingPeriod: CHICAGO OHARE INTL AP ANN CLG 1% CONDNS DP=>MDB,1.3758748451E-004,1.3279719285E-004,Pass,Pass,3.1001946072E-002,1.7184192669E-002,Pass,Pass
 Warmup Convergence Information,THERMAL ZONE 3,SizingPeriod: CHICAGO OHARE INTL AP ANN CLG 1% CONDNS DP=>MDB,1.2211067617E-003,1.0354407228E-003,Pass,Pass,0.5918262676,3.2318992377,Pass,Pass
 Warmup Convergence Information,THERMAL ZONE 4,SizingPeriod: CHICAGO OHARE INTL AP ANN CLG 1% CONDNS DP=>MDB,8.4065039363E-002,0.1461482275,Pass,Pass,7.3391551345E-002,5.2688853704E-002,Pass,Pass
 Warmup Convergence Information,THERMAL ZONE 12,SizingPeriod: CHICAGO OHARE INTL AP ANN CLG 1% CONDNS DP=>MDB,1.8095863876E-002,4.3452371177E-002,Pass,Pass,0.2461838780,1.1207566215,Pass,Pass
 Warmup Convergence Information,THERMAL ZONE 2,SizingPeriod: CHICAGO OHARE INTL AP ANN CLG 1% CONDNS DP=>MDB,8.3812817705E-002,0.1419212837,Pass,Pass,0.1538827678,0.3719859313,Pass,Pass
 Warmup Convergence Information,THERMAL ZONE 9,SizingPeriod: CHICAGO OHARE INTL AP ANN CLG 1% CONDNS DP=>MDB,8.3980216403E-002,0.1763293222,Pass,Pass,0.3782645694,2.1448856067,Pass,Pass
 Warmup Convergence Information,THERMAL ZONE 7,SizingPeriod: CHICAGO OHARE INTL AP ANN CLG 1% CONDNS DP=>MDB,8.4111971415E-002,0.2100651134,Pass,Pass,0.2727803237,0.7492772940,Pass,Pass
 Warmup Convergence Information,THERMAL ZONE 11,SizingPeriod: CHICAGO OHARE INTL AP ANN CLG 1% CONDNS DP=>MDB,8.3779688156E-002,0.1173894476,Pass,Pass,0.2798110877,1.3306567863,Pass,Pass
 Warmup Convergence Information,THERMAL ZONE 6,SizingPeriod: CHICAGO OHARE INTL AP ANN CLG 1% CONDNS DP=>MDB,8.3809586906E-002,0.1359754284,Pass,Pass,0.2814465110,1.6773426144,Pass,Pass
 Warmup Convergence Information,THERMAL ZONE 13,SizingPeriod: CHICAGO OHARE INTL AP ANN CLG 1% CONDNS DP=>MDB,8.3775432572E-002,0.1231364527,Pass,Pass,0.2846090712,0.9857778395,Pass,Pass
 Warmup Convergence Information,THERMAL ZONE 1,SizingPeriod: CHICAGO OHARE INTL AP ANN CLG 1% CONDNS DP=>MDB,8.3869870645E-002,0.1457843086,Pass,Pass,9.4847752728E-002,9.0995845076E-002,Pass,Pass
Environment,CHICAGO OHARE INTL AP ANN HUM_N 99% CONDNS DP=>MCDB,SizingPeriod:DesignDay,01/21,01/21,WinterDesignDay,1,N/A,N/A,N/A,N/A,N/A,N/A
Environment:Daylight Saving,No,SizingPeriod:DesignDay
Environment:Design Day Data,-15.70,0.00,DefaultMultipliers,98934,270,4.9,0.00,No ,No 
Environment:Design_Day_Misc, 21,1229.0,0.1415,5.7310E-002,1.0,-11.15,-20.1,ASHRAEClearSky
Environment:WarmupDays,  6
 Warmup Convergence Information,THERMAL ZONE 5,SizingPeriod: CHICAGO OHARE INTL AP ANN HUM_N 99% CONDNS DP=>MCDB,2.3322699623E-005,6.3572679054E-006,Pass,Pass,7.2460618512E-006,7.6535324980E-006,Pass,Pass
 Warmup Convergence Information,THERMAL ZONE 14,SizingPeriod: CHICAGO OHARE INTL AP ANN HUM_N 99% CONDNS DP=>MCDB,2.4045129260E-005,1.4321325092E-005,Pass,Pass,7.3587809322E-006,7.8974985528E-006,Pass,Pass
 Warmup Convergence Information,THERMAL ZONE 10,SizingPeriod: CHICAGO OHARE INTL AP ANN HUM_N 99% CONDNS DP=>MCDB,7.5051665036E-005,1.7899221383E-005,Pass,Pass,1.0296778542E-005,7.8663427533E-006,Pass,Pass
 Warmup Convergence Information,THERMAL ZONE 15,SizingPeriod: CHICAGO OHARE INTL AP ANN HUM_N 99% CONDNS DP=>MCDB,1.3390821481E-005,1.1598901394E-005,Pass,Pass,6.8508711744E-006,7.4475180754E-006,Pass,Pass
 Warmup Convergence Information,THERMAL ZONE 8,SizingPeriod: CHICAGO OHARE INTL AP ANN HUM_N 99% CONDNS DP=>MCDB,7.6681350641E-005,1.8432828828E-005,Pass,Pass,1.0495586450E-005,8.0886298640E-006,Pass,Pass
 Warmup Convergence Information,THERMAL ZONE 3,SizingPeriod: CHICAGO OHARE INTL AP ANN HUM_N 99% CONDNS DP=>MCDB,1.3509621474E-005,1.1704786548E-005,Pass,Pass,6.9034077455E-006,7.5045774160E-006,Pass,Pass
 Warmup Convergence Information,THERMAL ZONE 4,SizingPeriod: CHICAGO OHARE INTL AP ANN HUM_N 99% CONDNS DP=>MCDB,1.7299848693E-005,4.6887300286E-006,Pass,Pass,1.5273790620E-006,7.3547722762E-007,Pass,Pass
 Warmup Convergence Information,THERMAL ZONE 12,SizingPeriod: CHICAGO OHARE INTL AP ANN HUM_N 99% CONDNS DP=>MCDB,2.5597350766E-005,1.5944439653E-005,Pass,Pass,7.3684579427E-006,7.8671919015E-006,Pass,Pass
 Warmup Convergence Information,THERMAL ZONE 2,SizingPeriod: CHICAGO OHARE INTL AP ANN HUM_N 99% CONDNS DP=>MCDB,1.4415396831E-005,5.5940001468E-006,Pass,Pass,2.2558759771E-006,1.7579890396E-006,Pass,Pass
 Warmup Convergence Information,THERMAL ZONE 9,SizingPeriod: CHICAGO OHARE INTL AP ANN HUM_N 99% CONDNS DP=>MCDB,1.2981993383E-005,1.1385468749E-005,Pass,Pass,6.7337415451E-006,7.3169870045E-006,Pass,Pass
 Warmup Convergence Information,THERMAL ZONE 7,SizingPeriod: CHICAGO OHARE INTL AP ANN HUM_N 99% CONDNS DP=>MCDB,1.1966049900E-005,1.0607282882E-005,Pass,Pass,6.5617797716E-006,7.1164220474E-006,Pass,Pass
 Warmup Convergence Information,THERMAL ZONE 11,SizingPeriod: CHICAGO OHARE INTL AP ANN HUM_N 99% CONDNS DP=>MCDB,2.5471211945E-005,1.5809112169E-005,Pass,Pass,7.3114586403E-006,7.8016193376E-006,Pass,Pass
 Warmup Convergence Information,THERMAL ZONE 6,SizingPeriod: CHICAGO OHARE INTL AP ANN HUM_N 99% CONDNS DP=>MCDB,5.7557464322E-003,3.4273950358E-003,Pass,Pass,3.4161541077E-003,2.2051527986E-003,Pass,Pass
 Warmup Convergence Information,THERMAL ZONE 13,SizingPeriod: CHICAGO OHARE INTL AP ANN HUM_N 99% CONDNS DP=>MCDB,2.3111118209E-005,1.2840104261E-005,Pass,Pass,6.3807551282E-006,6.7569098203E-006,Pass,Pass
 Warmup Convergence Information,THERMAL ZONE 1,SizingPeriod: CHICAGO OHARE INTL AP ANN HUM_N 99% CONDNS DP=>MCDB,4.5244386740E-003,3.1148662514E-003,Pass,Pass,2.7089397955E-003,2.0628829680E-003,Pass,Pass
Environment,CHICAGO OHARE INTL AP ANN CLG .4% CONDNS DB=>MWB,SizingPeriod:DesignDay,07/21,07/21,SummerDesignDay,1,N/A,N/A,N/A,N/A,N/A,N/A
Environment:Daylight Saving,No,SizingPeriod:DesignDay
Environment:Design Day Data,33.30,10.50,DefaultMultipliers,98934,230,5.2,0.00,No ,No 
Environment:Design_Day_Misc,202,1084.4,0.2082,0.1365,1.0,-6.23,20.6,ASHRAETau
Environment:WarmupDays,  6
 Warmup Convergence Information,THERMAL ZONE 5,SizingPeriod: CHICAGO OHARE INTL AP ANN CLG .4% CONDNS DB=>MWB,2.9227574583E-003,3.5730383607E-003,Pass,Pass,4.0532328306E-003,4.4914638572E-003,Pass,Pass
 Warmup Convergence Information,THERMAL ZONE 14,SizingPeriod: CHICAGO OHARE INTL AP ANN CLG .4% CONDNS DB=>MWB,4.1875858440E-002,5.8060957382E-002,Pass,Pass,4.7962604253E-002,5.8513500507E-002,Pass,Pass
 Warmup Convergence Information,THERMAL ZONE 10,SizingPeriod: CHICAGO OHARE INTL AP ANN CLG .4% CONDNS DB=>MWB,8.4962403659E-005,8.7990614607E-005,Pass,Pass,0.2064149737,0.4994599627,Pass,Pass
 Warmup Convergence Information,THERMAL ZONE 15,SizingPeriod: CHICAGO OHARE INTL AP ANN CLG .4% CONDNS DB=>MWB,8.4121394173E-002,0.1503087205,Pass,Pass,0.2664743679,0.8808050880,Pass,Pass
 Warmup Convergence Information,THERMAL ZONE 8,SizingPeriod: CHICAGO OHARE INTL AP ANN CLG .4% CONDNS DB=>MWB,8.0154501808E-003,8.6810812252E-003,Pass,Pass,9.0402213452E-003,1.3093214106E-002,Pass,Pass
 Warmup Convergence Information,THERMAL ZONE 3,SizingPeriod: CHICAGO OHARE INTL AP ANN CLG .4% CONDNS DB=>MWB,7.7624419088E-004,7.0143444539E-004,Pass,Pass,0.2940965539,0.7443784826,Pass,Pass
 Warmup Convergence Information,THERMAL ZONE 4,SizingPeriod: CHICAGO OHARE INTL AP ANN CLG .4% CONDNS DB=>MWB,8.3626150339E-002,0.1325546513,Pass,Pass,4.1740844471E-002,3.7629525125E-002,Pass,Pass
 Warmup Convergence Information,THERMAL ZONE 12,SizingPeriod: CHICAGO OHARE INTL AP ANN CLG .4% CONDNS DB=>MWB,4.4934554884E-002,5.5544733756E-002,Pass,Pass,3.1893197960E-002,3.8783591884E-002,Pass,Pass
 Warmup Convergence Information,THERMAL ZONE 2,SizingPeriod: CHICAGO OHARE INTL AP ANN CLG .4% CONDNS DB=>MWB,8.3664369504E-002,0.1439112599,Pass,Pass,5.4165578762E-002,5.3934897222E-002,Pass,Pass
 Warmup Convergence Information,THERMAL ZONE 9,SizingPeriod: CHICAGO OHARE INTL AP ANN CLG .4% CONDNS DB=>MWB,8.3880691478E-002,0.1665070443,Pass,Pass,0.2170586833,0.6212602195,Pass,Pass
 Warmup Convergence Information,THERMAL ZONE 7,SizingPeriod: CHICAGO OHARE INTL AP ANN CLG .4% CONDNS DB=>MWB,8.4026058358E-002,0.2061169833,Pass,Pass,0.4172733383,2.0009290582,Pass,Pass
 Warmup Convergence Information,THERMAL ZONE 11,SizingPeriod: CHICAGO OHARE INTL AP ANN CLG .4% CONDNS DB=>MWB,8.3508044208E-002,0.1174100176,Pass,Pass,3.9022643945E-002,3.0671103805E-002,Pass,Pass
 Warmup Convergence Information,THERMAL ZONE 6,SizingPeriod: CHICAGO OHARE INTL AP ANN CLG .4% CONDNS DB=>MWB,8.3579716495E-002,0.1381364102,Pass,Pass,4.3272989569E-002,4.4465772478E-002,Pass,Pass
 Warmup Convergence Information,THERMAL ZONE 13,SizingPeriod: CHICAGO OHARE INTL AP ANN CLG .4% CONDNS DB=>MWB,8.3532863066E-002,0.1232095758,Pass,Pass,4.8674892944E-002,3.6882848332E-002,Pass,Pass
 Warmup Convergence Information,THERMAL ZONE 1,SizingPeriod: CHICAGO OHARE INTL AP ANN CLG .4% CONDNS DB=>MWB,8.3689549138E-002,0.1373274893,Pass,Pass,4.6986835919E-002,4.0409179704E-002,Pass,Pass
Environment,CHICAGO OHARE INTL AP ANN CLG 1% CONDNS ENTH=>MDB,SizingPeriod:DesignDay,07/21,07/21,SummerDesignDay,1,N/A,N/A,N/A,N/A,N/A,N/A
Environment:Daylight Saving,No,SizingPeriod:DesignDay
Environment:Design Day Data,29.60,10.50,DefaultMultipliers,98934,230,5.2,0.00,No ,No 
Environment:Design_Day_Misc,202,1084.4,0.2082,0.1365,1.0,-6.23,20.6,ASHRAETau
Environment:WarmupDays,  6
 Warmup Convergence Information,THERMAL ZONE 5,SizingPeriod: CHICAGO OHARE INTL AP ANN CLG 1% CONDNS ENTH=>MDB,4.2052421707E-003,4.3847109969E-003,Pass,Pass,3.5058653667E-003,3.8417065494E-003,Pass,Pass
 Warmup Convergence Information,THERMAL ZONE 14,SizingPeriod: CHICAGO OHARE INTL AP ANN CLG 1% CONDNS ENTH=>MDB,2.6541018096E-002,5.1105074798E-002,Pass,Pass,0.1795218950,0.4910937210,Pass,Pass
 Warmup Convergence Information,THERMAL ZONE 10,SizingPeriod: CHICAGO OHARE INTL AP ANN CLG 1% CONDNS ENTH=>MDB,8.4067878980E-005,7.9713273912E-005,Pass,Pass,0.4185730763,2.3685700714,Pass,Pass
 Warmup Convergence Information,THERMAL ZONE 15,SizingPeriod: CHICAGO OHARE INTL AP ANN CLG 1% CONDNS ENTH=>MDB,8.4104202588E-002,0.1483969605,Pass,Pass,0.2655403537,1.0235296814,Pass,Pass
 Warmup Convergence Information,THERMAL ZONE 8,SizingPeriod: CHICAGO OHARE INTL AP ANN CLG 1% CONDNS ENTH=>MDB,7.9441742976E-004,1.8253231894E-003,Pass,Pass,2.3043099944E-002,1.4059767047E-002,Pass,Pass
 Warmup Convergence Information,THERMAL ZONE 3,SizingPeriod: CHICAGO OHARE INTL AP ANN CLG 1% CONDNS ENTH=>MDB,1.1403351932E-003,9.5140477357E-004,Pass,Pass,0.8037556913,4.4178707304,Pass,Pass
 Warmup Convergence Information,THERMAL ZONE 4,SizingPeriod: CHICAGO OHARE INTL AP ANN CLG 1% CONDNS ENTH=>MDB,8.3859881552E-002,0.1436406095,Pass,Pass,5.6264659911E-002,3.9768280565E-002,Pass,Pass
 Warmup Convergence Information,THERMAL ZONE 12,SizingPeriod: CHICAGO OHARE INTL AP ANN CLG 1% CONDNS ENTH=>MDB,2.7316989756E-002,5.1491606149E-002,Pass,Pass,0.1197075315,0.2846127685,Pass,Pass
 Warmup Convergence Information,THERMAL ZONE 2,SizingPeriod: CHICAGO OHARE INTL AP ANN CLG 1% CONDNS ENTH=>MDB,8.3725955252E-002,0.1448610856,Pass,Pass,0.2119971930,0.9603694148,Pass,Pass
 Warmup Convergence Information,THERMAL ZONE 9,SizingPeriod: CHICAGO OHARE INTL AP ANN CLG 1% CONDNS ENTH=>MDB,8.4138019616E-002,0.1727214932,Pass,Pass,0.2570770475,0.9390003534,Pass,Pass
 Warmup Convergence Information,THERMAL ZONE 7,SizingPeriod: CHICAGO OHARE INTL AP ANN CLG 1% CONDNS ENTH=>MDB,8.4160095159E-002,0.2049097663,Pass,Pass,0.3373821585,1.0843201169,Pass,Pass
 Warmup Convergence Information,THERMAL ZONE 11,SizingPeriod: CHICAGO OHARE INTL AP ANN CLG 1% CONDNS ENTH=>MDB,8.3624016722E-002,0.1182175500,Pass,Pass,6.2044772522E-002,4.8992014215E-002,Pass,Pass
 Warmup Convergence Information,THERMAL ZONE 6,SizingPeriod: CHICAGO OHARE INTL AP ANN CLG 1% CONDNS ENTH=>MDB,8.3747075410E-002,0.1391771382,Pass,Pass,7.0057046041E-002,7.7961527496E-002,Pass,Pass
 Warmup Convergence Information,THERMAL ZONE 13,SizingPeriod: CHICAGO OHARE INTL AP ANN CLG 1% CONDNS ENTH=>MDB,8.3649417724E-002,0.1233414087,Pass,Pass,0.1370955902,0.2536645874,Pass,Pass
 Warmup Convergence Information,THERMAL ZONE 1,SizingPeriod: CHICAGO OHARE INTL AP ANN CLG 1% CONDNS ENTH=>MDB,8.3800548318E-002,0.1446614985,Pass,Pass,6.5166645691E-002,4.6619623394E-002,Pass,Pass
Environment,RUN PERIOD 1,WeatherFileRunPeriod,01/01,12/31,Thursday,365,Use RunPeriod Specified Day,Yes,Yes,No ,Yes,Yes
Environment:Daylight Saving,Yes,InputFile,03/08,11/01
Environment:WarmupDays,  6
 Warmup Convergence Information,THERMAL ZONE 5,RunPeriod: RUN PERIOD 1,5.4028556839E-003,5.1508705955E-003,Pass,Pass,5.5958678821E-004,5.0919252962E-004,Pass,Pass
 Warmup Convergence Information,THERMAL ZONE 14,RunPeriod: RUN PERIOD 1,2.6710319540E-003,2.0011102772E-003,Pass,Pass,1.0907229776E-002,1.1084836025E-002,Pass,Pass
 Warmup Convergence Information,THERMAL ZONE 10,RunPeriod: RUN PERIOD 1,1.9364192216E-003,2.5845851642E-003,Pass,Pass,4.0135346552E-003,5.7080956958E-003,Pass,Pass
 Warmup Convergence Information,THERMAL ZONE 15,RunPeriod: RUN PERIOD 1,1.5969796323E-002,4.7030248897E-002,Pass,Pass,0.7150596046,5.5314650736,Pass,Pass
 Warmup Convergence Information,THERMAL ZONE 8,RunPeriod: RUN PERIOD 1,9.9755846295E-004,6.6617212389E-004,Pass,Pass,4.8583999335E-003,4.0104070373E-003,Pass,Pass
 Warmup Convergence Information,THERMAL ZONE 3,RunPeriod: RUN PERIOD 1,4.6629102651E-003,5.5234305711E-003,Pass,Pass,9.7742376991E-003,1.0389845719E-002,Pass,Pass
 Warmup Convergence Information,THERMAL ZONE 4,RunPeriod: RUN PERIOD 1,3.0317038551E-003,1.9044538980E-003,Pass,Pass,1.3730763799E-002,1.2386781088E-002,Pass,Pass
 Warmup Convergence Information,THERMAL ZONE 12,RunPeriod: RUN PERIOD 1,3.4650172252E-003,2.1257642367E-003,Pass,Pass,9.5806912317E-003,9.7341530409E-003,Pass,Pass
 Warmup Convergence Information,THERMAL ZONE 2,RunPeriod: RUN PERIOD 1,2.5445033630E-003,2.0616336100E-003,Pass,Pass,4.3887179401E-002,6.3799685201E-002,Pass,Pass
 Warmup Convergence Information,THERMAL ZONE 9,RunPeriod: RUN PERIOD 1,4.3290956517E-003,7.4589443768E-003,Pass,Pass,4.9575520981E-002,9.3187716256E-002,Pass,Pass
 Warmup Convergence Information,THERMAL ZONE 7,RunPeriod: RUN PERIOD 1,3.8106624263E-003,3.5512215441E-003,Pass,Pass,1.4799864333E-002,1.5396437170E-002,Pass,Pass
 Warmup Convergence Information,THERMAL ZONE 11,RunPeriod: RUN PERIOD 1,2.5078407659E-003,2.2229185179E-003,Pass,Pass,0.3876768698,2.1038083554,Pass,Pass
 Warmup Convergence Information,THERMAL ZONE 6,RunPeriod: RUN PERIOD 1,2.5514572811E-003,1.8870727640E-003,Pass,Pass,3.4133725419E-002,4.8871366229E-002,Pass,Pass
 Warmup Convergence Information,THERMAL ZONE 13,RunPeriod: RUN PERIOD 1,1.2034016904E-002,3.9783521143E-002,Pass,Pass,0.2374039075,0.8871335073,Pass,Pass
 Warmup Convergence Information,THERMAL ZONE 1,RunPeriod: RUN PERIOD 1,2.5542651640E-003,2.1048263680E-003,Pass,Pass,1.5787801003E-002,1.4225729296E-002,Pass,Pass
! <Program Control Information:Threads/Parallel Sims>, Threading Supported,Maximum Number of Threads, Env Set Threads (OMP_NUM_THREADS), EP Env Set Threads (EP_OMP_NUM_THREADS), IDF Set Threads, Number of Threads Used (Interior Radiant Exchange), Number Nominal Surfaces, Number Parallel Sims
Program Control:Threads/Parallel Sims, Yes,1, Not Set, Not Set, 1, 1, 102, N/A
End of Data
